* C:\Users\gmant\Desktop\PROJECTS\Celestial Projects\DCDC Buck Controller V2\DCDC Buck Controller V2\Simulation\MIC2103_AC_Transient (Ready).wxsch
*#SIMETRIX
*.ac DEC 25 10 300k
.print
+ ALL
.options
+ PSP_NPT=10001
+ POP_ITRMAX=50
+ POP_OUTPUT_CYCLES=5
+ SNAPSHOT_INTVL=0
+ NEW_ANALYSIS
+ MIN_AVG_TOPOLOGY_DUR=1a
+ AVG_TOPOLOGY_DUR_MEASUREMENT_WINDOW=128
*.pop TRIG_GATE=X$U1.X$UPWM_02XX1.X$UPOP.!DCOMP TRIG_COND=0_TO_1 MAX_PERIOD=1m CONVERGENCE=1p CYCLES_BEFORE_LAUNCH=50 TD_RUN_AFTER_POP_FAILS=1m
.tran 1 0

.SUBCKT MIC2103  64 65 70 68 79 69 66 73 88 76 90 77 74 89 vars: FSW=550k ZCD=5
.NODE_MAP FAULT 75
.NODE_MAP FREQ 65
.NODE_MAP 0R79V 85
.NODE_MAP 0R75V 84
.NODE_MAP BST 68
.NODE_MAP VDD 66
.NODE_MAP PWMH 72
.NODE_MAP PWML 83
.NODE_MAP PG 88
.NODE_MAP FB 74
.NODE_MAP 1R2V 81
.NODE_MAP DH 69
.NODE_MAP DL 76
.NODE_MAP RESET 87
.NODE_MAP PGND 77
.NODE_MAP AGND 90
.NODE_MAP ILIM 89
.NODE_MAP SSDONE 82
.NODE_MAP PVDD 79
.NODE_MAP VIL 80
.NODE_MAP ISAMP 86
.NODE_MAP VIN 64
.NODE_MAP OC 71
.NODE_MAP SS 78
.NODE_MAP EN 70
.NODE_MAP SW 73
.NODE_MAP VREF 67


*
?@@--START ENCRYPTION: "MICROCHIP MIC2103 Encryption"
?@@Ecnk+LRBQCAVPuZ38cQxtU8tndDr/VAkHSPnvpQ/sVBG3MyW2KLIP2t3q8E7tT+u9nxq?##
?@@8lesolykZYi20F8pWdnbD4QXQVl/nXbI9vUEvyMHXIm4MrCz2TCQ66TpAaVYtc12orXd?##
?@@cxMtzRqbhdEjSRO1FEjxO/dZ6h1IGCob+ZryZiBo+lQWTtKV/DJ/nQ5uzP/6IaC/N4pU?##
?@@oJanWM2uorSNCB0AqDCZLgeJE1A6cRLEvQggNDcPH5yQoQt1Oc1rCN2uPGwluQhKmiSr?##
?@@FetKXODMyZdt3vV2GynKLpDieJ8OIabSnKapkapIqrgBgJgXH4+AG0jRqJg0P8agOHd0?##
?@@7jV5RL9hr0axkCNXJWjT5GUD8paktg1HI9tRG3YIEKf+sgxPfFeuWRfQmgOeZjK1OUj8?##
?@@B3M+h0vFeBMr9eAeL0JcAJKkhLP05P3fDS6rr3NwHpbtesbzAkS1FSXUJ9eWFfwadlW4?##
?@@+Is3uO8xJdNEwywi4GwgBa6bruGxBv/WqpDYyTHBRWN9VwNWNXYIgKS2hxnhxhrQSRCz?##
?@@SaoqUEXdiwulLFd4jNPLy4HTMFFmkjAMnUmvlPwsijmiVN//+xuoZgwponrLHbdcxTrC?##
?@@0kRimopSBlcSECA+Vxd2cf7yq1TnOnm1+0JPoFUOVgOiuCj3mq212mH69F8z/6lhPQyp?##
?@@X2fO6AVxMJSRzbdu3D3ao8QxKbPUqtW6UT5UjHApTrgStiH39S8jrpeHoDWrDKj/xTGJ?##
?@@rP6MfFEZgXp+XTXuXTNBTUOZf5C3zdP0LJ9NiKF/MTzjGaMI/UnremCfrv/xMIuVAJdG?##
?@@xdVqHZ5d34J8xy+9KAVAXrgkW0PBBSo+wOWTQw1ZATtAvEZJGzGTnI/HflhfldTZu5RO?##
?@@Dq/E8hqUOTc2an6oM62UzWu9hMG9AChrDZby0aQX+13wURsZP6eq5qgmgmb8NY8dYoN5?##
?@@dzaZMaADbPWgK2R1aGYQedMjfa3I4vZWp3znwlv3lf0ZDqlwny5N27R7EfG/HDB8LM6S?##
?@@pLn0uRFj+GI52euiK2lmf0y5+Y1gSEjwQl0bNmN9vSv8po70QPNZEZaiCwvcKq5YOG/k?##
?@@yfe2f7iUReU4/9GEkzIpgarqlhQKXBy/WbNq65ALuFKO22EW2shEf/VFjoAQMeYNFfMH?##
?@@NgfAwRFkBexh47wAvbiYbOkCqudoBs7hXx9hjUrcfhxifPDkMsoJ0BmV7YWosyHAz3v2?##
?@@l0n8PPHOptf1JOp1DRDI9qjIyCZYbjwXFjoqTY8wekaPRSI2N99DGwrTRRhonxisZ72u?##
?@@gINETIdZhvDnyUX5lexpy/1tFaVz2mMqOd3/yjKWFhS4K++f2IqBa9S5s1sCsY8j+5i5?##
?@@rQag1MJkfGSFvm7BbH9oJH11cuLELv5iis50HH38DE4hnQZ6Cm7lhaQIOdmgT1O7TvfO?##
?@@xt19dhnbUyisXozXFYPT4bSl+l2U1ylot7kwAJpOo68um633UEOLjrnPknt387/81rqt?##
?@@kyev25Nous5Aruz4X3McWqt0NVsK5uxj1RnC2LUxUvvXJ/q9RFwK7uY7TU00HfBUX6tE?##
?@@BFkFfq4lDjKi0HQeToE3OSaZsmfiXcXJaOhp2RTm7OysYTZ5PhcK3J4npn/nmpGiaDP5?##
?@@WTRc1S4iQ62IccAY1jZottR46AthOfi+40sthGJTzBN1ywDHsA3XaJIDx904Uxpqnq4d?##
?@@xt19doihQmVg82W/Ic/spVSkrMeD4KPv6Gf+ayVgGGAKFw6ZSL8m1v9HwWjHCLcqklE0?##
?@@/8e9I5+rAkrFYFUIv1ezKAdnRCEw3gSHbwd8q6AVokelhYgn8QIn9Obve/XZpt2wHqbx?##
?@@sCDZ3kqkzaAXm3B17ocBEOKs03lTKxM4b18xG4sc90ELKUciJGBBfqVyjbCq7395l635?##
?@@pcEHEqM9/5SuaogHecZ/HG3svmR3Bx6qTCPMwsOfOlKPN49fYB2RHMRDcwQr2HchN2a3?##
?@@xt19drGDz96oaBYS/s/JSCpt6yWiq77KEOwBtxhqcP2uQgQYA+dZvxAxewXOjiIjjJvs?##
?@@82DY/lyreVd24MkZmOqB7senhshWIQuNUnKr/RySQc0nnpccrKUSY0m1KCQyMpSJvtQC?##
?@@9GnrV/htV8s/7aDnC8juwg/4zLsd95H262rNgg7141pEDHKiFmBN5ZAINSS8dUZjr0aQ?##
?@@gYxYpK34EQoY2Q6jZPV2smUbH0Rg8rE0LGa6bvaM5LJZYL+9uLeIW2s4mFUkpW6ooY0j?##
?@@rg+zLTjP6awHXzyGOE0tqmjDoCl5ZsrROWaW+PcI3q8+iTl4YRnkCMrn4K41vPxLCW9m?##
?@@25IOtY/XEolIfntdfDlyu9mFA+1uT+3PgAoYaTjvX1sdsNsOKqIwDvgUGyB7TCfWdJsU?##
?@@kA120jaBNHoUN3d8u4dmi73ipltza/LVJA20aVFRVgiI7fzyyd0hEFhmLBM0b3eTNGmR?##
?@@pcEHEomC+XIYgTUz4g/6Y55VSr8luPV2pQli/eZBYfpacFaLLNlQtlBxSLLxN1WQ7qF9?##
?@@Hjn1eN9Z5uY+WP5vhrEdvZg3D5sX9j+ta1XLqAPGxU34+9q2IWgin5RZZf1trTpU8VTV?##
?@@49aneCQRj+3/yI2SjIJ9Fy3eWiVuFBrrEFnO/JQbfLDWcEJT4fKbMaFkyTSxk46JkrrC?##
?@@OBjmcaz6lX2uSj3nMcEAJP8hc88l0DW2dau+5crzRDU/Fi5QZZvHKMyP+Hjp08O/Bd+z?##
?@@5ejNKR+xkWODo2kixStkGTBRlmZqfmIS4gpitQqFkHKJrgamaho0RSW4PJG9dYr51Ekk?##
?@@2on7XSmKS+i6cXNSggBeCRi6j3k38ybgAJYNYXRmVOcGox8NhbmHuq1vrzi/tsNA40eS?##
?@@VyM2JUZ07KGxSApD55FdDEgkEM4M3Jj8Cd2CBEY2FLTdMMfxwnMyrgLZ7J1ehda1v1jy?##
?@@9GnrVzNM++CGAuvvovE9hK0GFMTsZEWoMYpjCpl0NwiOyMBEwuSXSpELiWi/tM/Umx+e?##
?@@nX1uT0hyk8iKQ/y6jQqePLKYdJNBjBxX1Zx3OF/zWTxLRER+kmcVyDeQ7cMWg1AWWT4H?##
?@@YoEI8c9eHeRvRbnAQEHMX1DsowNz7LTPD6CPZhnW18HpD6vQl3wj4zbW/EQasrwl3E2Z?##
?@@cxNMzxK/2xzklQldELdlGnSPXjdMdaeVNpTV0z5LZNxMd70E2cpoDCJob4gxWoqjQ4BQ?##
?@@8Eaf9c0b3P8E9CIxzLiML5XjNK1eS/pKNlf80thgaZD5tlOdaj47h8FA+hvLnuM+muGw?##
?@@gYxYpAuwigc96p5ey9KynulNIGsWVMyao3Spi8W/49KjNo3jFi6xPN5n2uczxto2wFNs?##
?@@itkDwFgVZyiaCeVfBbbAJ90J2mU377vDjy50cFBMwGkwI3LwE25dcXwFgKA6K73QDQ2X?##
?@@X2fO6LSKRtyuz7n21a7j34Jm8QQ0OzRl84KqAkUU4gA+qItiO9qVH0j9BZpYttr4xjjo?##
?@@3JohDuVFxAcYu9H6ahuTUI9tSSxOvjKY9OlpT4Gprx0bXwklErLb1xQuM+iiLH5/rKdF?##
?@@/baXcg6wg1FPFP0QIkGIs+UROATCLYyTkhcwoL78ibHbj86Bu8dTseaVXQwMzwvoE6EA?##
?@@SrM+qKXc9AGm9NW9DVQRrkXUHUkV6zRh3QKNBS9xEv1frnPXGXKo3pNVACGuyjbUE2eD?##
?@@NxDTGcXP4Q22P8uLH403LcAJ5/arUHCQoVWhsWLA2Wk80WE6QP34I0VGfNAGqOWqonGJ?##
?@@kA120uqo46tF6wSRF5+lbx6QwNVwkLZb+5K0lT6eJYCmeVRf4s/iwUXtCGUQlc1kVEoD?##
?@@PUNFK7RtwXN7T39R4/NbeKeJ5fyjCOiU/kzxV08Br7d/Y+NwjEzRViBU9fAo1fM49fbT?##
?@@unaYUUKzT4P5BTQyVQF4YPDon678YjfJBg73wIYNUPmBjQOre4p3aglu5Se36lNgBoo/?##
?@@M+2Gt05rKU3hf+Z5AqaNzu0Qgy9NP3oqeiO00OFllCcPnDr2cFFDo2QG1JBfaMR3fPPk?##
?@@mFIPlQIXL0gciKrlxYAYYQnS5Nd0vgETSqJYwkO6eeOxig3Vtc+jZaqKUHkLkU/4jG7d?##
?@@KZfHRFENDXjc3kBsGSf5uJz1i5ii2Z8nwERYfF66SLmbXrN7D8/VOlH9oFZxxnUYVD0Q?##
?@@4s6TIFySdZzswVAAuA9aYr+tx8UaOFIq3Jn1JHefDkQANFbMgJQIYa1DY8K1DZavGATX?##
?@@5/nz2i60SlYTvGIWgImkhI/QpYvsmnzrhZthWMaxmFI19H24CKpWn47mVpcVp6jK4ZbO?##
?@@EMDqonD+XwTew5sV+DNoTc8HGBNXqzt9EO94W7j9JOSho0aAfE/o/UXNVRb03lRym0Du?##
?@@KZfHRPIcOj+afl+LN5/SGp2C7/dTJLJA1iOuP9dJQKlll7L8vsDsFYGP5ekdhAB/yjmw?##
?@@UvjWazcuSnprmXHimDJR9LhTbLeXeZT9sYb3C5ikvvuk01xisC4+BQtwnkCDepCI15W4?##
?@@zyspkfxMNYUEMwI9h7qsV1KHd3d9wS0P4oiOvXSldM2FzU+6FKEkyLj6p8zr4PJxVPsU?##
?@@zBHviLebipMKMoKPWdCh7TwatrEbLwotSqTzuT/XmY8IIumb/jKlWILQje9D4cCkcQg6?##
?@@OSH5ynISCEpEZcFk3U4FNSumXJDs/7LFNSAoySMssJD1jXx8hSMBPBm9xcDi6bj2a99P?##
?@@8lfFpjvpbzpwy96uBFulTG32lhUdbp5ngql3KCd+pfbSDpeln0xPmbxPC0tFtFdiI9vv?##
?@@82DY/rD7/Izxr/B5AW1BNg3tznywDmKsQAxLjJqS3KdkiALKiMRy9meJ1jOcFW3Zv3yT?##
?@@xMxXxbonR5yVFAfvXMjvrN2IVRiFP31WsQDYcMCxp03e8KI7uebeqOd+lvyigU1rZlMW?##
?@@2YHoBTPPNYYGZSIm7xnectDANtGaWfNzy8Cfk4Rkjs9e5aDeZ2ANThWwouU/a6FeXkbM?##
?@@YoEI8cFiRfmrkP2c9L4E2PdZ+OPIMrCsHp5JSsoj1i18KH/c7zdEdzg1ncic2KuNXNVV?##
?@@Gx+8bzNtAHWqpegwu3CfAOC/eVw7uo5P9ihkv0MlOOuIi8ZyB+XKzXS8IjICYDXIQiz6?##
?@@EMDqok9iu69RnUpDO0unKrt8sBHGHi8jKiFf/z7cN2selTRsmvmC+73e0+2k6umKbmgt?##
?@@QWaSjZE9K5pW1AViTrC3Z47V0OtsKrvcPSQwn6VVhNQ7waJN4yEwP5KxKF7Im33SGKI2?##
?@@ZqRUUsZj8B0iFchjmhnGvB7JDtk9BNKAwULYe4pulXkttt2GY8a5hOlPAoJRTS+xkB8U?##
?@@W0WChlKNlz1CPbz7I9RTndF/oCBWfEo9+IbO1XpuL8KQPZUpKCwrmt6wASU1zTye9uk7?##
?@@uGVyoeDYIgNJGxskyb1DXnvFA1gb/D9XAY235mbNrqBC4/slHRSeOOHBdeAaR33F+v/O?##
?@@ab2NW8sE3AImvlrfSBTB6NiFrUZaMSZYYUj+jG5ywJbFiVOSslp8feep5PJxfteWY0lJ?##
?@@4s6TIKo/fGFMHDLprBA9hBdOy5XMXE4UtHKuQj3yY0VRFV8RLIUHC2r19G/fHqM5/aO2?##
?@@i+IWGJj30RE8s4C1p/Y7lXmbItxD4g208wnwRLAaoVq2q6/MIlmIneyJ+M7cFjlpRJqQ?##
?@@TMRkWZSMtci+Iak40ZoLcjZNSTsV7CVueS52mbNtvtZ8ALj/erpNLck5OgrLBYdtZwat?##
?@@ab2NW1sPl8JVkj65kqIAIATB09wrWwqAuPzJ6T7sJnBYbJfYPFQsI7AaKRbk/ztSgoMg?##
?@@4s6TIBsZLm9R6dloeGcm8O1z7kHJFqHsy+fUe+iW3vg45c393PHbs1Oj+eNhGZLbtsTI?##
?@@001189Oqp5vYzwmNyPXtqyZxBTifAZUlfE5txdf7WAAnygDY8I3Xwp5WrTNmEBgKpkPh?##
?@@GAWDZQ/L4l4OOtb9LhbMNoGPxFX6BmzcCnaSFZc2tFWBGIi9LhHUakqJ40Q73/V7pyKd?##
?@@5ejNKR5tttaTXa1hKlZXTyQ1Mh4C34VdugQ1qvm1Udrsx1PPJctDvfnBD7RIDvOKCses?##
?@@Jn2OO1p80EAF/cMprsubPv9/1Mz/w0iEKfEMCe7WdQtuA7uD2G3T1f/JnBOei2DE96Rg?##
?@@szoS5419S6TXCzPYkLkMAS8cXr2syyKhEKQwV8mYmfeFaQI92WK9O8RjaDNKyXX+yLCF?##
?@@9GnrV+whny9CSrVc2Xg21nMLrsD2NdR1n+JitIlkKL7LP7t49B/yOud4HBpaJH2uzihG?##
?@@beDavY/zx760PYjHsV7K02vA5KOMWqtDTH8bWCdJX8Bf+OXLVyaxij5FWTYmFVysHzq4?##
?@@YoEI8bEVcHTIfqhnar8y/LgATNelTmcB2xjJ34B1qOppZuR2eIJJBdRtoBplqFgsCgfh?##
?@@m2tInurBIpa9l3hvCvCj73qcXdyQfmnEndfjFHgbzdYnPqwg75FvIRk2C0I7Udgt0EtE?##
?@@bNfHZM3O8GTihJV5vkHZvogRuE0zV0bXugT4m+I2gQk/zYbEpbMkw3owiZwv81dT99iC?##
?@@Tc13sc5TrKwv5MNNMqQiZNIPJdbhS0lfc8w/cDUwvQKdoA3t1lhWBL6em12Uib0814Zt?##
?@@noWBp0qiVeB1RrABNZm6VTKJ0feTqEeHZOl2WDiwGQyhayujCQa5ndpty8DdZNLXMkYs?##
?@@5/nz2urI15vUkrMltivO1cOYQlWckhEqLdiyFUYxBPrWag7vqZb9sieg37oEhSzjwN4i?##
?@@nHRb9rXNaDTSywlqoavXo5S9nygr4T3WGFl41S90mgaTQATrg98Bkp/wwcI9RM8cBcXX?##
?@@JXV74lkC76DQGgiQptLCb/0kYVIcdZz4v2QgK/pS1p8KFmtK0+6jrayu82VevaTsVWQh?##
?@@asagtNXNNc/zJ/M9Oe03cRKLpu1hqnmmg+ht442x0pWiFeaxyLeOPzoOEPtbNvQQjzXs?##
?@@rxfGhYxqxgPZxCrbluoKjjvDvdXTfdbwcy3IXa2NO1BHwBICFIMGRpNtUyQpg3acJbdj?##
?@@WCtJfTNhdd8o/JtvbTVOx49ztK6nMDn2lL4Zl4LjsPR/pNH4Tc7SWQ1Ktjtt/xgtzwVy?##
?@@uW2F+V5wQCEqoADSz7jnOZapCT7DYT92/pZCDGIBFjwGA9+zACcJeGLCm8mFo1XxNsmv?##
?@@EtEQU6mcIclEdMEVS52coAHV00rTYcAbIpWpsQUHfSB4ecsR0iyl3mZWE7L46ydVfHhN?##
?@@l0n8PBlNFIBIWMtudICjYbBd8SREg0rh8VOtYRK81NP2xqLr169xzRf+TiVASiqhtqTE?##
?@@mFIPle8FUIG9m3Chsl1JlIuYdOvBUntp68sk3UOYJMwSCe566ReZcKEXLKTL7P+V0h4j?##
?@@idHwZ4S5p4a7qYSZbTr9fEm0mKTq2Y1Wsv9L2OyGBd2UhekhHaUHW0f2vIyIcm0VRcuO?##
?@@bujtFeifIOluDYmpfXiNffwLYCp5IN7PFKdMza0bFMCJlFPZVIj2UovSpKx1Z3ry8m+G?##
?@@kyev22gKx0Os9BhI6ktbOIiT4g0A+LHpTdAiGIWQKaTArvcdCbdX3LAGPL3xQSG9dpuN?##
?@@2HjVrOm5tl0CXHtjnyThGsEW+q7H6t1PjNcKZbz3GDlPdEuVvZWiGesjFaSHE1mg8hnY?##
?@@BWIY1jMymmQF9eNU17iq0Ipzakx+i0MFxkOAGXB84ciy5VLwQztVr+Cebs3Hh9u4SZ2D?##
?@@Co14kEjq9MQ2R1Zr+YhCUL6RJ2Gm9hV0Kax3VnIMsBQ4/Ckq5HzEzzZjzOhaV8o//+3s?##
?@@i+IWGHjCvy53fdTtH+AweDDHGvpb/h8cO8XXI44BZvXiltoJoTVSUrJRjPWhOMVfw9O7?##
?@@vIe+AnP4Rq/ocK/CFIz++CDQUQzKwKOaZPsn7/0APtgQh7ovgm3aU+A5+sUFTUVBnqzS?##
?@@idHwZ1DFJtqgXR9egzIOsva8Df7+EVPK8dvOs3XzdyBbcdoZEhJ8a6H2BptAZ+9uj4tj?##
?@@ZqRUUhS8aVWvvXGkUhZ8uD5Sff5hKBxjXlkeBtky/HQ4p+4q6Vz9mOs8O4pneZmAg4v4?##
?@@u3+rqjXhA01l3GyUEPUzcMTM8OIZEX58Ivb/EbUJ5x5uYRsssURZkTy4D8eh3vub0rsC?##
?@@1FaIS/OpNDdKWp4KINQ4QdXDvjk2tW7YNfyV0fmdidjhJnHpjii+ys9lZSBOzVEGUJHy?##
?@@LboUpSCk0pN2CU5HR27G2zuQvFuMi8sxkD/EPLQg5GnnkvkoSLhSNcovHBwxu0853NGT?##
?@@jvxQIZWk70CI0w0PpvRTeHe+AffBI/Yb1uqqLIKtvAdYblmeDEMKquVjYpnx3yOSkYpA?##
?@@rxfGhb2Wnb66Jq3RAF6C1BvSZnas65oD0en3L5AMsAR+Ca0kY37rl8LSmWBavwCcICas?##
?@@CHtR4F4+be/Iqky2phpPQCSAt+9NqYpWybd4QLRa6ciNowCis1NvX3DgAxS0tF2I6BOv?##
?@@lTjVjDySAu/3C3fqmcQ7DMiKRlAkbrqjbLezJwmWKXhB2kgnd1HJ2v9PW6MPU1WTlr0S?##
?@@Qm6l5TE5AkiVHhVLokN5gmzQJHrZ287H4eplQszL50DQeNm5qov6MZJpShKA75jb1qCn?##
?@@H0EJ0ISnCixjxeen6/P/gSEtx5KAI/+LQKse+rnrokjgLyZXzaJ4zovMKM/FUa8YkLen?##
?@@XE6V3wpOKSuatEgmlttoVIsJ4mBa7VzgaqIm8bECYcWkuDWya+diDQQP0m6M4x3iwDdk?##
?@@tUs4l84D/2nrlYzpVRKxnLB0m2WIdf1GdLp8/WRk864ZbmDOsFR8xAmNItB0ZqLFnBmk?##
?@@NgfAweCCkguNpwYm/xO+YOCowp5c4gwxONBhIEup6pid5zY2XZ5beILLnMSwRTQpvpp5?##
?@@Q3e4PWrXNKDmLCJTIS9QtvDYrF1SrSQZXH2bGqcYBVvGLKy3c71kMZKOE7Elr03AgSNr?##
?@@MNNNrn+HxE6p/wBWcTNKse8Qqig/zI7SgaltIpqHy0R2uaPN+zGSr/97uRdWHwz2r5H0?##
?@@dSVygBSBKsviDQDb+B4tHo6mFSxpSPstRgW8X7GYOecqtbPCl+MFuZ4rQQ78FSs9qfSJ?##
?@@1meu/FoEP9mClbEaYouz3JoVNE1PjprHr8eCC6IybPEz2qEMm2QWG1WCI3uRbfOplvGS?##
?@@E9ojrEIylR5I9Nv8uKhfKFBjL8cULBIhuc/dLa+5eA7ESCGuqf07Vrv6juEyBiFwZuYr?##
?@@BFkFfiHWD8oVkxl5tbJaHwCMFetPk4WmhhtoL+CPK6B+/Iju3UI/Pya0NsLXT9NYQE+k?##
?@@dSVygKLD00Fkze23CEAFQgEsfuzh8JBBfNHo8sIojF8IB11y0aeAXPSft/3QeAGu8sLz?##
?@@6hMs46K0WnEl/ncbo7rpUhPQ2GforRn7k5gu03rMIl35Aif6CrVLXfnq1YaYgDjQgeRF?##
?@@p9MtwgJ5/1QrsgLsdNXUonjVQLaMwFc8D9JNiYXJPIfi+akDXFxFE/dtGddjGeG7pTLQ?##
?@@rP6MfEwdD7aqVUUHYjRiVupJ1W/paiPfS21xRaKlyH8nJZgkgY1e5CqdXarntx+DpQv6?##
?@@eUe/4a0OQIZs+pEH67Jwy+Vb9B2ukWkP9wEJeSVpisgIMM7k/PNocKIMkEwlI8wABTNn?##
?@@IltC2V0Wskdp/QzA7/3sbK5Kb9rEKXT7zzbVHnQ9mpd88vsfq3C95dqzlk2ksWHOmKYr?##
?@@o7DhYYiLYY4Kei6KaEL8X8/ovpUrfblh+3ZyEycWIC++rBu1Gn2XvciGppLcIKv+ciup?##
?@@6AEGMnhckmQkVBYOkz2H8mUFcYcUGH9WSA4gM7gCiy4njkHQIlaX7utkF/D+UsgyFqdD?##
?@@AT/MdT+2Q0Lpw3+5UINdZ+TqSW78JIXW0bH3DOycsGKVcxMWxFHSsPh39/WsZEFrNZmA?##
?@@unaYUTmVbflc9kbXLiimAlF0EVnmHHMEoQN345yCIigtUAi6R/d4rQyWyWcZXede1gII?##
?@@+6VxwU6k5QqKP5CobbosHcr2FSgWhfMW52Q61HzdEBGTm8M1zuxDu8nDGuANSA/mITMn?##
?@@pLn0uags8UpIV/PWCKDr++haOPTsAfzijtuP4O16NZli+UeylyJQ11xpfUZbOPz/8v5/?##
?@@fWkLQ4ioHKG8qhP+NbLcPzqODXvSIcqvyR8/A+M0pckF01LbsPbxsP6lNTpLlWd+XE5w?##
?@@2on7Xe8IdTBelr5a4OLlVwdE/Dj1p8kiIpWzEuCGJT0mGYAXA4CeqOONpOHjkT5jdL6C?##
?@@l0n8PC1+ahadv5VMROVBGsQoYUg3iZmrw9482+Ddi17KPCqhKm0Xnn7uHIoZzeCD+OMV?##
?@@sCDZ3hTSXhTZNxrPfknSr1+aM7kcGt91Q9sI2qsUmL4jCRbkhHWeXVMtuvQcqLciVCyU?##
?@@rQag1Ly0a7QaJSghIGjVZxFJ4uF3zbvE3MrGnBKb16gnjfiI6W6hpYGb3NX9y5oyOSk7?##
?@@noWBp1slHxiQlHxYT+ZJQeC2orDwiro3LbXeHp7KN6MnLcDKhjoTMR1AR9KTGUX3Y/dV?##
?@@F/xwDcw7b74NVCKnpzByguK4s2xCUrMDQgKTgYqohNM7wK0BsptdI/akN7NtsowDzBCG?##
?@@1FaIS39eIb1Wxpq7SiiPhQddkuBgoB3c05nks5+AJ+o7+yxJOYJ8YDGl5L7Ntv3xuHYu?##
?@@4cWAyMyLKhvQG9MHwGIo+vjp6OV40uZ2Tb9HEb31r5jI6O2fz6vcE7HyE6MBoktPpmpf?##
?@@PkxYg5PmxzC6H9nRt1bsQwtHtPUamoS860YsSeT9kIcWuCH008todOXqXunHMGy+1Oa4?##
?@@P1Rs3ECrRLXpy9u0NhkOD1BozcFkIKHb7DjziSwj3VC7s/4j0Kyj1H5mzuF8+69tjEL0?##
?@@JGxoirdmw/UsaQ8WDvkEYgMEDfskTRmSp9sh4qm+mUvLQSEsn/wtzkVLgHyOCHds6bSW?##
?@@ha6kBogucnfstqaiB3wos8lAyFI11N1ksJ/7d00QWPX0O7TGO0VyCzsO/usZkRpPHsWF?##
?@@TtWKCev5tuHSyu39Q0lOfAZBR5sf/Q3s1ka4x0op7UZjujmKdjccDbpbGZfIoEpHuMny?##
?@@jwRjedv/YH6GdqKSbI7YfFvraVyznEhsqQXDXOYjbvQyzfI2cPhgeqGrdUrtbUcox3b/?##
?@@eD6siUaHEd682RmYIdA+RgqNsLARDJfBA/ovJhfhB+n4K1WhvsVqCx7v8mCLov9ABcZ0?##
?@@KZfHRBttdRa7HT1V91xkdksGHOv4wGDQs8G3KvkCVwKDcZBEkUxVFQztuR5SZWWk6tx1?##
?@@5vDggkeM7CaszWWp7KhXc/xjNbwclrlWjw7zt3sD2yhsXm95aGZwsfqQX7QhYf99wDsy?##
?@@25IOtSxGztqjLKhRIDidPxzLvKecLYfleOGUx4Y5KkODGrx3D2kGYLitih3m3T3VcwZn?##
?@@lC/CM4fOXDq4qiy3EuQXLzuOjP7t0fSKYY5RxNTzsQhrachpIy0DtYS3D2WK57dcJjA0?##
?@@tUs4l4yr7rkFLdewSA0rwg0Ok+D9Spo4vJ+KNknFYtbndEruQv1VuFepAV55PO2CArvW?##
?@@cgs5d+oYE1W1NIDANPkW/Ko1hyCnENH9tJD5kIRKyOcI7YOP7x3gQcDpgDrSGcKiqyV8?##
?@@Gx+8byfu1jPGuXJjIgLHM/ErsqjgZtfPkO009pBR/GbL5l2y+j2oBQb6ISOxE6SEek7H?##
?@@XE6V324rda/lcHFM9Ll7M3SpgLKpnTUtxEKgTi8jH3GfajaJIHLxNL+vKUp4Mel6Wmz9?##
?@@yfe2f6f4p9UoVC8d9za7bb3nSfrbAZx5SRBsGfr7BhQ19tpcFFCf+C2CYBrgUuLR4keu?##
?@@Hjn1eIcmKa7SYSfu5IT4lioDuI88sgAfWMq5eep/480j7WuMz5Iear0+R2tDgIQy4GTq?##
?@@Z6xnq22JhJ8d4pXtWwr+tMfCkYlsZ75g5oFg4o0bp/7jy44XI1zCKI1pF0ao42q956Rq?##
?@@QF1/NDGeLxNWyTwLB2XeMPLqK1mRp6DwiqzIOHpyVLGdkuAGJ64WHPvIrfjdJ6ATjkSm?##
?@@KZfHRNRfQUskTgAb6s+YQ91lWp277cfnhGhZ2lctzWpoqqSLnnV+WPPoPUAUuy2eOLfd?##
?@@NgfAwdMa6NiSOj7dsXVvWRt7EYN1UB8wchD+FhWWRTgaKj20ofqn1zZ099RdWQU+axpc?##
?@@Y4obSXjlxbGB7ItC9oVjoBW8gL5uNk/JABGz27de9YGyJnezSEynDlTGhnuYzgkJs8Jf?##
?@@nHRb9kTosjt3oSwr3gnszSqBsTGqhfzrpfUF4e3wAinunQqh4V4kU1SxRnVFEnAmcTiE?##
?@@VREQdMiR17asfMLncBb+gp28s3YaTk906qzeXIxs415xiRNMs7pljISKcIc3bI1YBeVe?##
?@@9noRB9VDPqsZtEn7HlF6jw66wXxuNPldJ6FjMWx4IFoGkOTAPPKIy/zwGnKhEy2pyyqw?##
?@@Z6xnq3ktuooqSMjggYX1cUmByS3k13v6K7hhcuZ2DdhNLaQduuOrhOHi5a3SLGZV5cB5?##
?@@iMjdD0WwJBOPm58j/9+YJoqOUjjQ/XXBurm19lG/vWPI5boBQr77rTcQMFL5H9DLu3/E?##
?@@IVIvgUUgi760yayu8lACj0UjvLH6X19EY1+IV5yXXz/3T9AgWuPv+pnpniRWcDizp7ah?##
?@@hre3XklUguAKTJ2sI+V7nGKkru86USArM26+JpPqbvWvimR6VpmUvleEA37mo35tr6tZ?##
?@@kyev28XHNNPkR5HoUu6yM6SE5/mzIcYukHhXGpl4Q/yvRorK5NWYQMlSGXUF/v6t4MVM?##
?@@qNtAG1d/24QSkZWwZ85MdJMushRIE4A8wh7hEXX/bMrjgGN6R+ULtILwJPHOWxhsFU24?##
?@@ha6kBv5+olFe9Pf7PD+7lpy7NcCAPeboIlQT8dpTXDvCHSxQeaMoQnN1uGmcijP8w83c?##
?@@AkjfzfVmso9BD0ULAisfdYyJP0qNZvexous5zDJq7CP2khUMZ74oWAfzuTYvkrbH0x/C?##
?@@T96dYpUK0phs6XxLDWjMJI84t7GkfT06cyABPM+XAWK+Ofc3VGXjS2KqNGg2xKDeKY9x?##
?@@jOoqcOUu1UNnEZxq0yglj8n/bOUvlZ1GS2e7LLJX3gzFKVc90p5MjfCGhtKgRBu6Q7Vy?##
?@@mVoi7Qc7cIH3UqxM8U6cq16F/+cs1SFm77fPtkCD8CbkWeiZ1wuJtAod8s7opmOBg3CY?##
?@@oqjOCJ8Gnwa4PbYDCp2XBkINUB4Ok6Fwou4miqagtig2sUza39O0rZqQgVm4tXGxS3e1?##
?@@+6VxwQJ5W+NQqUaNQCEV0hxQRmL9PFjpF1v1FzxzTSGWRVpmGtiIk9eZB4ssOOrxokur?##
?@@HCfPx4HUMJSve8izMIWJvtcHSxKzmZNUwpp852D33gda0UWTn84NhwWGUG5Swzk/0jwQ?##
?@@ZZtB+lDZYji5kwsBvHr+YQ0zGXvE5zejz0LK3Cy0EgVftwsfBXgaXGrUdagHJveUB4IY?##
?@@Xl+7jwUQKJOP+HiJ2qQUaoxpmtENe7zxtxMsvVqEXQC8wrae2fuDkQN4dyBXgJ+Wi8lS?##
?@@F/xwDZn9tq2R+8zDch5km+/tpFWsYFZ9QAMNyDKuzv4gd6+VtpvAC9m82yYqCFUTtSaM?##
?@@wKoKZPDKoUImzaVMXpIkGpm+Vaon2xAi/Ve3lvbEPGCnhST1jg64myguAOe9ezJU+BI+?##
?@@eUe/4cx4eVIiquD2OmWJw8feC5j5d805TnBgNsJl8eVShWTj70q00MV2WGplJyN5biLg?##
?@@6hMs48Nx+Gp31Oo23HBSVdQnJz0ZKeLUhrL8me7T4cPk/0sy/aBeho+RLBluEolD6O39?##
?@@dzaZMSnoK0sfFWItwqQEeodETOv61V6GtG+kMo407I8iKqU0VHzoBqxpfaoerhvtumfp?##
?@@dBxfJ0tuCcEbO1qdOwR5c+4QawgjCmv9Z/IMwGvF+fqmeywEBYKuPXZOV4nfjYYZU7xi?##
?@@vZDRWukR3hu8wuwn+bMCK0nXBMSU/v4UVlz2Rq6F7TXF/iFqoitRxdLSHzf4fYeLlhe3?##
?@@TtWKCRZee6QTGkhpLiNtcEmqmE26NbIJ/LpydAicqr6lhPOqg3w2RFkeGBGfuZgzSBkA?##
?@@E9ojrNJZvEVlpmNR0CBh52cMjRVF+xn27dwJurhDycVjr++rwNdi9sQBht6HfchuHRZZ?##
?@@uGVyoWG0F4HrPENDpWBTOtvh4aosdoaQTuQcpgvsbEbz7p7ws6407oUUcDZFMR4h2+jb?##
?@@0TxPQgu6woDZWnSL6tabaMaSlJujiwSLVMa6td6BVByQjWgteHQPfQpk0/7duDsqVzp7?##
?@@fnIem716nnP0Sgj1UmW8EK7SciKtzmdbEDGX6uhrkKzeQmHNjPZ9fEwg5ED4igIeLQSt?##
?@@A1DyJrbB2xBjSfa5GqcI6vm1FwvXhVmUF0zLk1xdbhdTqQjYKHe8ddPKc0hD2ZlSWLZk?##
?@@KI+06wX9N6ZIaFTwVy3oyxB2WSwRd4GjNJGg4ZMLkokWiZwuKEIMrHBsIMPUgq90pdx7?##
?@@3aM0Zs4l4VXW8rYqTcrzsxSnWLgd5v0Q++SGCsYorh4SmVGmRKS/UXC1FWHRvUrExbSR?##
?@@YoEI8fWBLgsJ7cKIctddk8IX/I8VACi8yhfwCWoQWfSVVSoCNY2cEM6/CFjPLVmTy+6P?##
?@@T96dYl7M3DqzC8r0ghDGfciSA6ZJqp+MLxJzWZgt9mz7MCPQB/LCyAFgy3Kk8jOcqyeP?##
?@@9GnrV6G3xRsYt+BdSdyGUgS3ou4bXlibhjSiu7RDDeI6F2clQLLyLK3k2PKqazARVORC?##
?@@mVoi7TBwqaUyG7QjfexRCfGegV7RpHqHCDdJXMDzJOwzWqsuZ091yumzdhGEkyLLsE4e?##
?@@NgfAwRyQsKDIBsfrqUDKDGnBKl61qCiUYGZtGxMubGhkff7nuY7lv4lEj18LoWMP5lYg?##
?@@h7/Ktn6dp1Je5wzuXTdlsieSHyOAGSwcC//T2WdQTIHSUp5RhWNzGEOUZUkkzDdiMss+?##
?@@NPaZEOkZFHfb3o9Iik0B+PAFszjEmMYq8MJDpiZxBYQwTnGGFEVOk1PeUcITzTbWJ0cw?##
?@@oZ+6sC16wywwgvpDeH19Rn5Grh+VyrGynHEKOM0olJkI7QrmANSSy4X4Ge7H6GZwRduE?##
?@@IltC2VA3ZpUqwViOFQdgQ6oW3iBD7R80uLR7MyMyXZDxFGfmgYnHWBHlkHfmlVEccxP7?##
?@@94IkYPEkounU1P94M+oS7DA3SyVVjqxxdHwiOCf+S+gBUchzyaw+E4nwZUAPWlc3D0Gm?##
?@@VAn8HEHvAozbxrluvBX0MncgXQdU31hq1TK5Q/wzICupLpB7HdGikH1htSePmRPwQx67?##
?@@idHwZ8oizxLmiCM37VfViyWDS1DexbIir/S6p2Q3Lmj5ltm9n35Qgq+wJM2QkE/SViHG?##
?@@psoaas5drlbwfAcoeYT067vKnyI5pMLFf1DHLAaJBlrvSPj/NQ6IjxZ9LG8ZVK/oqQxZ?##
?@@dzaZMbxbD0MRcfvdYfXSbywpwypli3yPIiga/6iBS8hCYpH28y5C/AT5Nb5GiYoYg9T9?##
?@@5N+60dFv+W6hW8JkxrMggfZbhNI9zLwa1ACMEV3SdAgaxqDJOzI39oYGpiLJl5IMxf3o?##
?@@ab2NWxJhySotw2cUagluMmegwFGcy/58vA+QRbJbXy4oo699rXEO44RbmBsV13RhQTkk?##
?@@MuVzX9PdnuGnLBhO2usuwtR6NBkdva76OFdOnjz2eZXzuAYEv7UyFhvIuP8ygPkZq3yy?##
?@@kyev2x7BGaCzbXKSpWemQoSXwxPESD4oPrNLqUFbeo66FdsJ9ffYgvnWr/nz+2O2W4o6?##
?@@aLV6AxkZNkki20FvXp/qusxS+gEVke8cLJ2itJm5IClENUfUrGejvLn4cnsV/IEK+jBw?##
?@@SaoqUH9GLp/BiCtfCqkGReho1uQL/dLirFxr+ryIga0PLtvoppQg2tzfecP7OpgqkRLd?##
?@@IltC2dZGMVUq9bR9wkKlGuOa6USVrWjnYXLmKAItexPFhs8jHFXvuIv8EKljISdR6T5/?##
?@@Z6xnq7z1Gf+p8uMwuS4LCpPNuzScTt5KEF9gJUKZxMd5dJDL8gQOyNbaWzcbuk1KUN5V?##
?@@5N+60XN0467mS0HFWaft7up/EsPiG3Img/pS6TmYwqA4gh4KDlrfluB76NYIc78pbq0q?##
?@@uW2F+fL7mU2Ey2K9/WX8KBbFWsgXzidF1fGLeILksDbbOzC5H5ic5b5j5Jq7w9lgD9hh?##
?@@jvxQIYE98kr6AWykyPgnKR/Er7m5aRgnt1VmkDps/OOM7Zj4G7+dP5/35XNt0pE0mwYf?##
?@@x+aQzqzHIMxIEZBcOyzmqMl3QQlXuoVs+0QhlkYjqbH1Xu6UTqeH4mQhTisDMqn9ON49?##
?@@HCfPx3LRkvBQ6Z7za3yeoVnootXdDpI/KFwYx0giMbrL21MDiCBR1R8rGE285J0Qxc0q?##
?@@BWIY1k14gF3LLbmaWdP/2TNsTNRyO+ZAJr2up19KRXT3bCS2ub+DLDJWmVgASDl+EItA?##
?@@fnIem2tcCPa3N82IaIYjIAhdK1VowAp6LwwFknd6wzlK0GOverbf0HUxLcS0mfPO31Jw?##
?@@D7jXSv9++Pe0mMejlrxpqtvy1rVOcUcrXow0dmGN6xdRRIexirfOflrW7lIcZI490uWn?##
?@@LLEBTW0RmGVsH+CJz0ezp/TwAFnKnoAO27nxyH3kWK9/FDfuUP9Ai/ZQ3LGawsbFcNBW?##
?@@ab2NW2LJlq40tgp8x9jFgqDDz8IZ30I5biBtmI7NCsRy47LqYUvoCq/rBWnNDXpK625v?##
?@@unaYURoqcSdjmA98ZyXra+pR4SV0SCS8zrmiwRVJi8cpB8LKNcrifWljg9i2gOQg4fiS?##
?@@82DY/n0ApvDUFSYIetF5EEQD5iwO2ZBCTzPPyohFS5xbIMsw+rnVH0Z1j9KXxahma1xj?##
?@@sCDZ3vqsKgWk2Rl02J9iipKcp3fQ4nzORxdF98KOndt0tfn0ZM7qHF/Y+35R1J99VsTw?##
?@@qeRTc70nFLrfTn/rdqmY83hDS1koLwT9h9kXEjmFwXUPdgb3PqYLM1nordZa03i9kV0C?##
?@@VhojzOPTfvCK0z5YYHedNvjuYj2Hm/sgMCRNd3mV1M6q6aqw99801HCDqw0qCZ//rtud?##
?@@e1jlksZnVk1S9+6aQr+9sUc9zbD1pvcOWoq9+9kPgFMkwaoZOQeCiS1BYWVpGn0f85WN?##
?@@2HjVrBa5CcH/5GMsa4QL3j0OUOqhz7/bfxxz2zKapLXCtYM7M0yoy7ackLDYMU9gPq+K?##
?@@RYje7p4BwqkPYrUwcJtDtqxk1euu4TZ0xzpbwuvLdQQFKImy7bdLsRAbIamxoNBgYuHX?##
?@@jvxQIS01/JzOd/W50QmNUDjEjmFJ9aiVir+9Ou8iZL9DIKbV/YXpxlShNWlw6dX0NYxZ?##
?@@0011820+x30o5YAnKX1Rkk5/fz7WFJtYqeRw/W443D2mk2Pa/SkY1KNvKSiobxRUun94?##
?@@IEocKNLmR8e0ZgV2cL4hTLnnJ9sol6pv6qbwpd1rS0EJ/UQ+TVBX8lXp2rja+EZqep0Y?##
?@@Ecn9+1KXIZLP4gKJ/WsDvY27DK4OvemRm6S4kgN9rzfPu0F/o8NFV085D9NhlPHDAsrp?##
?@@wrswFH3srany7wd9QlK380vRUXOkkZcFWv9r/LyZasTficpUOIPgY5jd5NMOMd5VTtzU?##
?@@D7jXSlL38mSt3Es65mfJ0BZFWacQ7JQCYJCMJsksMvUBkEUVVsiOc/Uie65xhm3dfBUg?##
?@@LLEBTU/v4UdKpfzdx+I10xzwxfCTTFtLkiqrSnr5iuT782DRz7KNU1xnYRj9UV/x9ePg?##
?@@ab2NWypeYVU2LatRjkd1J54uR+KxXvqnrY+VsRnhTolUguMhdyyDkH+cupIJ07hUWChj?##
?@@OikMIk7MBhJrnO+zEgW8EDEi9XkqUGBD2PO9eqMCCrdYdgcJwsKhdb61zxmiLp7E+Mo5?##
?@@B3M+h6CEJlH0HicSlPaDui2uAzkphn3n2Ab1gzU0c012zjulWK7Zl7tVZTDnGvmi25aH?##
?@@8Eaf9YgdtMMrYh9c+DFIXktuwvg91OmOYkb5xZuYh5Dl/7zIdpxglKJrdGsitpd01tCL?##
?@@ZZtB+m+FGC9rKpGDrLh1PfGdIBoqlA9L4GuBdBrfw1OOa9uOakeNj9WeEDlg7twzKfju?##
?@@AkjfzeYWAmrcEnyFtWuek4a5HKP/Mu9ZnDzVF3F0y9AEctH2oceEH8l2mo9zbcyT05T2?##
?@@f3sx8w2UmQO1dwHv8QXMlSe9wm6m2tBqWm96S2PxqwuqHwUyz+a/cu5akTmmop29DQJI?##
?@@uGVyodBqW8n3bIk+ozqN65VVIlYeQEL5qiove5BayQtnxvj1jTgAl38f/ZeEfQJfHcqJ?##
?@@RYje7jPf7e/s74WCtUG4koHbGvOyldwyRMbgOzMBo//XTcAKmXXJHpBFQgec6nOpir1c?##
?@@di2G2BTJaQtz5BRbYgyn2aUhmT2YPmuaR+pWXH+CdU5ufyhtRJjFcCBu8FbkfcwC7YrO?##
?@@94IkYGSrRYtvtzfbn557bs7kDTBOl0Nl3muAsGDEmx1rAHuHRCxwTKK/ZoMPxPavNO+c?##
?@@XE6V3/4rTFL+wVHhmvTrPaz9Kh0az1yckSVm+x3kHhMpZntnw24JgPLUvMZrUzr+LyVt?##
?@@/baXchpIt1pZEJkz98AdGLqvEdfd8vP2AAC7agZGNwl5UapMJC5OZOAJzCyWYgdZIN54?##
?@@SrM+qLxYGdojeExxLNVAkESDAOvHE8wWeW7f9fI40DLYKCaQXGJocGHJ4MLQA7Cg4nkM?##
?@@p9Mtws8NCZLBaaFaTmAZ0fDuYfodrUOOv9CxgvfhhBUzvLc+LHxpoV1LXxjTYHj+m8Jd?##
?@@oJanWD74BKDPZFjsc+NYFipsdOA0PBTTJ/dX4UaTkb2sbxjjKht/2Ru/AziB4Nbv0LEP?##
?@@PUNFK4x2lFwfVCJ7WcSQmeZ99iv+yvw80EKw1lUyJxtsJeRsf8oFq1Vp6oIV3593KKMv?##
?@@TtWKCXuPHiR8JI9vSE8Y5Meyg62NV0DgN58Qy71jyghe4lAWT/00G7GHMFddLgqMKWUK?##
?@@I2RVMfsqvJQwkj1IlHToke94xRFuY7appz2vTRJt87fHiVDlWp2S9pBX2+DKrzam9oKv?##
?@@zBHviK1CMBdbEy5bT/Ujaq66lw+JfW3H/lximcJ4OsRe+yNk5BvZtlwTfvkEBcKf//tK?##
?@@eUe/4Z/EfVTQaW4e+wLVaMvYWinRTCXoRmc0CVPc9MpnGDLLOLozJJk/c43PUss7UfvT?##
?@@SrM+qPaA1kwVgqGzKcAv9juhxRLhfp5p/4VkffZKIMmbqXlB5dRBvbjw1E2Pehl6Nyqf?##
?@@g51+VdsX6Ap6kCSnHd3u/xRDnfz6YlGU0d+JKjzdR28CHCJOkhn2esnvwnTF6bk05OrJ?##
?@@UOawuqZlHMBpSwgooRlTBMbbe+WdRSlHrWBIjcos8/xFf/RTb58ATqABCEDwt4eFvFtE?##
?@@PUNFKxzkapMO+9Ktiou6mvDzHxab22Pq4Lnli/J4bgIofRi51bLxBoKpThsdWr8P0rgL?##
?@@itkDwIZWooanmfnVW8UtfUKg8n+Jfzc0eaCnEfHnNTOFao4R5AXUjjvNZDZ3Gcx1Q0D8?##
?@@M+2Gt+TVQ7vQ5aNUA8H2dmHwJYTRyGCxujUytUf2uPQgHwrKTGT0stjEU1aE5P+8sGcO?##
?@@wKoKZII+jv9WgVud/H03z1PCzyzG1l6O1cz9ULEMAOPqVc+1EFe3b4Ok9k6U1e2OctId?##
?@@pcEHEifxlJW8J30XttIvZY2WlSHaBBSsY6G8kduY7Z9lCdQVYJ/AF5S6zzxxKLgC+Lj9?##
?@@rg+zLeiXfKfbPbIH9vCvlEeN3ovSpKu7Gt2aXpp3Du6YA0VpYfFnBGyMt6hmaQ8SmeNT?##
?@@X2fO6OCgbsQsLXlbaSOCDhz6OzZBasVErduxUV93uqF6zWWXhyxzhsbPuilKQyjNn+0c?##
?@@/K2EGvH0bmIqv4F9ZThol4zUNlGf5uHUB8ouJuJJ7b6woCjCWQlgZVmoaiCf90tHSClm?##
?@@6QoZi5fj5Oyc0jmLAtiPJl9QpYokdQeG5rR6ZSh0bMyDlwkLqZU0gitm2dy9A664A2Gn?##
?@@elDSOhhzWTA/MDT6NH/Tl6j3sYgq8NIDlSPBUQfFQJen4N9KjYc5baI65SKucujQERvl?##
?@@UwDpw4l69ci5uOlNQkem6JXvsEOoOzZnJ/HMTtQvjoX+7joKBPhbatq/iKKxOR3vPjM8?##
?@@RH/LlmHp8JvARtOx2R7jWoFY/3yfSylZPU17BizTKfIe/VsItjVfUdjLUiDiy6MTF02x?##
?@@nX1uT766fHmnrFOi68yesn/dtwh6QIUwl4y6bQ0h00kje5JAiMHwkPvhUp587vPx3oVA?##
?@@bujtFSpl1whQsEWgEx1HLSMA445uXYQ3E937O0HSNzEkBmYix0u4gRUrfH0i0DspjOAx?##
?@@5/nz2sIXVCCiGZK64gQsWqX3aB7aLaPkZM1jIDF0E99ANtRLFVPZ0DrYMmbyD8MB2r3H?##
?@@jOoqcLG7dkHU23VAyWkbyg/CU97HV+t1e+SI39IWvxzywzKBaey1GgpMkp/tZfAJAkUg?##
?@@PUNFK53g1t28pAQQ20YC/q5GZzCncVl2QtIT5N3FVQWMlOiScFe2/pMpSSmol3JzwEfY?##
?@@Xl+7jygDILs/CNsK8+N5Ri+PtNIInDkuIgWvylARcACoVJuzqAyf2ZB4EqJcntYvca5W?##
?@@C5WL6UCJsQ4G8X5+IiNxHCnENZK7jr1KTL5CYRwEC3S70BNFN4bDPuv+7mMcK2y6V4Wo?##
?@@vIe+Apgeod4RoCOeK/Vb+fN1X+YdNlKx9NspIH5QIvJzvtW5KLFewww6OpFnO9vVcdSO?##
?@@CYRlOJZ/xZDpngnEQdZm+m4svVBW2oMhG5kXeir7uR0ladVeegYSCPpSUXGP5pxxtE3t?##
?@@Qm6l5ffGuoxqfJrNU53q+BmHb+wF6ub5POZ0ND5innxTbRotLpTqAuxpe5Etme4eHumt?##
?@@dzaZMSrw8gc7lkKXdb+uHr5J6b04mHleIrJOLL9TorB/yonn6TXi+4WCb6HPF4YdUHRX?##
?@@dBxfJwbirgsK6/NSoaZPSaBv02LjI7NZiL2zfOhgIz5++WhYdV6f1y5s+CUbXXCxfhI1?##
?@@WTRc1Ulv3+rNSlVOoKNb0dPyI/1hmamOxozVfwbxH9/R920Jmbi8Hhf29vHdXwlSQujr?##
?@@MuVzX3yqbg8wQIM8gdcbc9EQxu0jB+3lJrFGPRR/OFQEW51jUA1faG0OWQNzEkrIGDHb?##
?@@/8e9I9Zc2PtWgDDUx57lrqjqRDBR2Z3wPNs0qawRcl7quGYIy9xdAxZ4w6XByq/KocoS?##
?@@eD6siapkALMRKEFimWtzDJD1KwC+ZUR9xw9hbx6BZM6g/LCSoDRnS9P+y65SCl+v6jkT?##
?@@FetKXEnT/8ffJItbFk5O8JL+KdVWJ162Vj5cA2GUiYev2Asz1ZFayxLSYNl4K4DXyRz7?##
?@@NgfAwVJ61QuG04VeJ3XRGgaf+CyBID3qSrBJKl79u+fbeP12ccBPfMTW7Fa6Ak24U4xe?##
?@@/8e9I4nmH4S/ERW+CrQ9DMDGQ1oGOfkXlzaYVuQlaVcOrJsVTDBKu3rFvihGHCY77tWa?##
?@@SKIX98Ru88j/WpWtCfZDv3BNiyVnF/tgcLKz8roNfg3F+fpyr+hSdcyL/WkEZbvC+jSu?##
?@@3aM0ZgF5egouM6Cn/p1CBLBQ/JJqkxhuuj4BIxF7f73UNaozfSvP4ci13BSz6viARkSq?##
?@@elDSOrqsTICsZZtxx36EHGDoCXec7vZ8u17kY1d5jLEQbY+Kn6sZjQ1a+yjDe+rWK1ox?##
?@@jwRjeRiFb4vpNdaOo3xD7dy6/CV7S3wp/wfMwkpNLRMT/fClOtS+uQNbJQ+LLqt2XWXe?##
?@@uGVyoVT/STwp+e6FGIwsRH052ZWVgEBd6REf/VuP8JkD7CdrXxonDYbpK67djPlnF5Gr?##
?@@rQag1M/7yYpAQej3u305aKoETR2ILvXytNxgVwAe9k9V42tIYygVb+u476iznCyBOfgq?##
?@@rg+zLYKIYvJjzlE+Bk0SA3pVSThP6xmPfZ9LeM1JWrCdnugRHROQ0SPjDbtZMQNjUh59?##
?@@UwDpwwbHBEW9tWWg9MME9JE3wge8Pcfpeb7w4KcRPkEnU67pZqKTzMkVGTh0PEr6j24z?##
?@@wKoKZH4ZRGoup6tpBqMxnJu9I53aQNxU3/Xkzqz96MMjmvt2TaImdltGT8Vb1+UYf3WG?##
?@@MdxgByfzeBQqley96NLzb5kT8K2mWwEisSu/jNQsoNGi+wYzNlVeB4x2GTNf9X4lVBD2?##
?@@Dq/E8gul/Xh6WoS874bptBb9umyxdBdk9nCKW1uIt3eI6q2k7DQXs9aBdty2n2A+ocEo?##
?@@25IOtalSwyxjpXl9f++2pZetRg32LMa9QbDlrzw9v0PaZUcg9ySeFuO2/FDgt1gqgvin?##
?@@eD6sie6HkZhViRQ5ARq0aP8TiwYN6tr13PYKA9H5sUZS9GeQxSOLCiRpKuIVBcahCZEN?##
?@@dSVygE+1b8sZV+MoonnkBHFExUMIzAMC5tULvKz7R/8tefLf3MZ85URgeQVvrogKNfcO?##
?@@Xl+7j9WKFeZ0G0zGv4VoXia2IlaJfWfT/8iVmseMjsC6fbMoefXdpKbWpqqiSWY/mY0T?##
?@@cxNMz6O1Rm64pPhcqireHRJW6YaOnMpGmFDXUfb3Ww8N7Q+y24Aa+nE/vu0bm/SaKCTO?##
?@@TMRkWTGfwGaCNEK9DJyzKLS5p+fqBrzIBy50gc7ATqx4GdFxpZeKjt0qk0h0QVv8iwjq?##
?@@cQImHgsMdGsdk4B2kK9GMmXKDMiNaPtvjgWtFD+vXRGdfNuXwthTS8ezwpGoJ3MzhWDo?##
?@@Hjn1eC9+jx03up3GhiFsM/7umdJHWfIq6DgmlC96C15Cvzv5MF8pLN66ZAQ4zkL1S3d0?##
?@@VyM2JaBSqG71QV9FoojLHmk6gJK4Dejf5gClwPVjvaK8I3lc6BeOQCid0C8yoJ0MJiOp?##
?@@oJanWPSFrfL2U+VDrrcRPkC5Yfcbn8QQ3aSOOlV5XtPrdPC2nAMZa+2BQy7xABd7VWKG?##
?@@BWIY1ormobZxYsAw34wZm3d4x5Yzh7k6sSlmpGWjWu1yw+B2kwHDv3vUyzCr8Sz8gdfS?##
?@@IltC2R/kzwg8L+kcXiPAHupF6G/YbU15v6dzfNjxLfMVQZhiZdADycg4MICJhgYPy02u?##
?@@rxfGhXXu6slPAN3TPp4iWmG29KgFathQWuNcQabbULFrnPkgKXn+Cu7nEI6eA2r/eRMh?##
?@@7CRSlPtz8XCymyB/eDZPoBrCLzLLgsmxnFFJwiD5P/BRoh/Tt0Ucl6JvifoGBrYd1C8E?##
?@@DaaxmWm37LxmeAxotrEG2eZtMl56VAsMUM5avPOmGUx4uAHROFm7vLbEnsSg6NmApJrz?##
?@@YoEI8VUxUAMFYFvFmwOuU7oKAVsdGTq1uDFqDRqcz/MSgKyILbwvqLR7iPlzccA/n3iT?##
?@@+6VxwVd/KJ/wqY53psHaG9sSULPMGXF4dJZVunmBlB6RV/gv1BHj8wcIziCohQJ77L1D?##
?@@pLn0uS7A5jAgmFvOAHMyBb4qmDsI5IR5NdNgiG7YEy4PHY1DcAQwxbRRkniMS47ZoP1R?##
?@@4cWAyI6EUohzhPlMKKcFBcfkmvTJW38kyrJeh+UpRJhW34wygO/EtPZALjyVPCouiiCO?##
?@@9noRB9IhTdBegb0QYWj0Cju3Zmo5TazBSyVDGReUEYsP9SS5BedrKdlki0SxoFCTd3Hc?##
?@@q/V5JIl0clGUod9Q+DL3VE1BlmrDkRvLDn7SnzpdhcZRhiQs879Wmmfv62QGqb4Sb7/T?##
?@@8Eaf9XYaZ0/8Gw5eTDjzb8Syr+ubKO8rspSTCsK/AZPZyo27bpT+BOC89m+9IWzmDOu/?##
?@@ab2NWxvW+3SpljJXeLVc2gR6fukBaMOnLG/f9Ro6VSrvT6LOOGhPz3ogjszRepN5xGD2?##
?@@5vDgghlxycwKsZFWOXPxZWaFGR/acaavO7ObX/W0gQ265eO0lAEW+NyRfBWzyb/ZL8MZ?##
?@@Gx+8b0G3uy2l8YCc+I17G40oML2AXh/s+U+xSKNON4oU19aqZ/GSMRuZpyYkW2nATVUc?##
?@@tEIlP/FMjvMxOpn/50edybwMa230d3QzsE1kHXJcGvXcGGwngCk46TJJzwnsVncdDHaZ?##
?@@4cWAyNMhXMm6bhixa2KA5F+cAnZNopt2OcFeYv7P71gNJ3bpXE4yvEwl1XO8LzJyFMKf?##
?@@wrswFG7pfXYwYZQPi4E7ECgeYALg4jYbnItLOJqLfwAFvWX8Y0fd5boJYVjOH0glwvFa?##
?@@Y4obSXKKr8+nWG+zLefrze5Pz3fN0citbF8QUOxCEZAAOycF+xEXdBtSerWFuhaMUdIJ?##
?@@YHDiQPnJ7X4sxt/Oc6rhPbMpBNR+u697+HvDhlDSrfsMc9+0Q2sStMtetDHaXwexywTG?##
?@@cQImHlSXgB6SDFJNereIQMIvOOnmUnljTTkZyhozubXvDNKCEzdrz9IgZ/jPzCc94MyE?##
?@@1meu/DSBIF+q+I7OuJIovvIWdGNU71dFRzilqdO3xoRqtEqgkPIjCbUOStbDI0j0h2Yc?##
?@@J4ahk8xMXU2gAi0R8AuM2Ytlr5pdhS9qKM8HkPqQzWpCxOAnyfIATzWt+6l6reUFVdhk?##
?@@7CRSlG73bteJa+A3WIoyI7eqV0upw0hbLitTAUqdgfoxSxXEd+ptQSXVLVmhq9V1krKY?##
?@@mVoi7etpyLfi61x11tTXslTojt8ODzO2xKhAEsrVpTpIBBcd0ZEZsl8no5IDZ6hHp+6n?##
?@@Xl+7jwUNP8kANKxT/BreFIWwEejP/4+deUEnkPFJ9w1uSObz4yfrXH4NXJc8QDFW3CSJ?##
?@@94IkYGafu8W9JTvHT546VYcXuRwHQmcv/9p+MHbrEDbpoO/EiIflQrH7pfLGtVyZL6m6?##
?@@cPoTxlop6doDgDzJi0zN8Xixj1RLq5r5QRhdv/RIEHuR6UiKH+ImHCtV6Y6L3zOKVKN2?##
?@@yfe2f7Qb+CZixHPNSrDmQpBxqcPcef2ao9ju2YRCcI227UZ16FVISa2GFYYleD8NCi4B?##
?@@Hjn1eK7H9ou51MASrQv8oeuZHwCssY/EwHtS9wUR75WYu1If/q7OQfPx6TNPcZaHaMRU?##
?@@g51+VbJl5rovLyvLZ2HW71z8f+/4tcsxmnUclZBynLLAUYJ1DWooRVeZOU6KQo8mxreP?##
?@@9GnrV9aFdZVIeDftTHglpzDz8yo4kBc7gxoil4mP2J5FaD5KMdi0qnaDQjgpREiPr35R?##
?@@wbIdvD5e/1KTmLIml/Kxn/L/QnI52Hdr9AEM0OWBmSAXk2eYpUVGhDoQnGllu4XTVKuL?##
?@@lkDo5LDDAPIIaVKltEAXT3MdEUtuwCv3xPR2A68TYhWnPnPdXJaELWXxySsTns9/ixWA?##
?@@o7DhYfiYsD8DdYhZTpG4oaCsaMymtQSPsHhlitr/klz6SZHwqFfd8Bn5ceGGgc3AJvyq?##
?@@CHtR4CUmgiMe6T5SZWE6he+WIdDEYtoXqXzKsBpTFbtob11bbAxsNlQ/QhU+n3C8wZmn?##
?@@0TxPQtpPOW20DoGkzACR1JFaXsJRdOfpLiB71Zn+In+B7BUPUlgrxz63p352o+0mYamU?##
?@@mmM1RXZcIPuCe1CSRNPBNxUFk2gtokGTRk8etmu8BmESN0rTWJMFiD278hWMfG+pwwGw?##
?@@f3sx86Je30w4MV4B19G7SXGz1JWdpEIo9YanzqNHAmU89q9mUMcHjgsbUTOsnvMpV0yW?##
?@@+Is3uMWVa7zy7wp2m02442R52IjiS8vO2Uy1bcROx9Viwbmi79/0vwjOwq+XFSsvjb7B?##
?@@AT/MdSEWCgbTekVB2v7xzLnkhq5oPEgzf2+kRNsxVlM8Gcif8oJRTM4xFutrAhAsEbjz?##
?@@hre3Xho+MK//5BD53/cwWIeiZCqi4DdKKiAxdeKVtT4DgpIH880y0lOBFZWe9+8+7ks1?##
?@@M+2Gt0LkQsVemRZV2zIlysNbNcJRB6Q/okA8kJ5WWA2dl0e2V/7fgeprPnw3CfmTVL+k?##
?@@ADe5HXPnIywRFsB9iDxhJtULttMaK/6cJEvKQnP5I1NkdEfma/u8KGk8xDITcfuU0MsQ?##
?@@RYje7kuzGrI/ysNPufE/8tbKIwUOZYNuh0ARBH9/HOj2rZxeXwyg0L469BJ6iDoQDJ6p?##
?@@quxmy3CcAFc+4LZ5Y0CRGAgy+2IJeK8dtg6VHoUw/P0cNgjDbmp/O61rnfysPM+9qlY8?##
?@@W0WChu/s5fuMVTwFXolkuFLijF2ZTgGIJIZkfcjfn51jIBVU6K9dUiStUHVG2gD3psYT?##
?@@5N+60QB98b7fjAhwbvlwtVKMQiSY10YNaPHkTVlLnHkXyfDkrz5R9wCvy8XD+OL8whlv?##
?@@ha6kBtiVpnSrWlPY1vPQd9r30n4bkm0wLqwHsRSnouXvJmmUaG8eSB5BSPTSz4r84SEz?##