* C:\Users\gmant\Desktop\PROJECTS\Celestial Projects\DCDC Buck Controller V2\DCDC Buck Controller V2\Simulation\MIC2103_Startup (Ready).wxsch
.PRINT  ALL
.options PSP_NPT=10001 POP_ITRMAX=50 POP_OUTPUT_CYCLES=5 SNAPSHOT_INTVL=0 NEW_ANALYSIS
+ MIN_AVG_TOPOLOGY_DUR=1a AVG_TOPOLOGY_DUR_MEASUREMENT_WINDOW=128
.TRAN 5m 0
X$C1 18 27 WEBSIM_CAP$1
X$C11 33 0 WEBSIM_CAP$2
X$C17 25 0 WEBSIM_CAP$3
X$C2 16 0 WEBSIM_CAP$4
X$C3 21 0 WEBSIM_CAP$5
X$C8 16 0 WEBSIM_CAP$6
X$CCL 39 0 WEBSIM_CAP$7
X$Cff 41 40 WEBSIM_CAP$8
X$CIN1 20 0 WEBSIM_ECAP1$9
X$CIN2 19 0 WEBSIM_CAP$10
X$Cinj 35 40 WEBSIM_CAP$11
X$COUT1 37 0 WEBSIM_ECAP1$12
X$COUT2 36 0 WEBSIM_ECAP1$13
X$D1 17 18 DIODE_SPICE_V3$14
ILOAD 31 0 EXP V1=0 V2=0 DELAY_R=1e-005 DELAY_F=0.00021 TAU_R=1e-006 TAU_F=1e-006
V$IPROBE1 16 17 0.0
.PRINT I(V$IPROBE1)
.GRAPH IPROBE1#P axisType="auto" persistence=-1 graphName="INPUT" curveLabel="I_D1"
+ analysis="tran|pop" xLog="auto" yLog="lin"  nowarn=true disabled=false 
V$IPROBE10 14 20 0.0
.PRINT I(V$IPROBE10)
.GRAPH IPROBE10#P axisType="auto" persistence=0 graphName="INPUT" curveLabel="ICIN1"
+ analysis="tran|pop" xLog="auto" yLog="lin"  nowarn=true disabled=false 
V$IPROBE11 30 37 0.0
.PRINT I(V$IPROBE11)
.GRAPH IPROBE11#P axisType="auto" persistence=0 graphName="SWITCHING" curveLabel="ICOUT1"
+ analysis="tran|pop" xLog="auto" yLog="lin"  nowarn=true disabled=false 
V$IPROBE12 14 13 0.0
.PRINT I(V$IPROBE12)
.GRAPH IPROBE12#P axisType="auto" persistence=0 graphName="INPUT" curveLabel="IVIN_IC"
+ analysis="tran|pop" xLog="auto" yLog="lin"  nowarn=true disabled=false 
V$IPROBE2 28 16 0.0
.PRINT I(V$IPROBE2)
.GRAPH IPROBE2#P axisType="auto" persistence=0 graphName="INPUT" curveLabel="IVDD"
+ analysis="tran|pop" xLog="auto" yLog="lin"  nowarn=true disabled=false 
V$IPROBE3 29 30 0.0
.PRINT I(V$IPROBE3)
.GRAPH IPROBE3#P axisType="auto" persistence=0 graphName="SWITCHING" curveLabel="IL1"
+ analysis="tran|pop" xLog="auto" yLog="lin"  nowarn=true disabled=false 
V$IPROBE4 30 36 0.0
.PRINT I(V$IPROBE4)
.GRAPH IPROBE4#P axisType="auto" persistence=0 graphName="SWITCHING" curveLabel="ICOUT2"
+ analysis="tran|pop" xLog="auto" yLog="lin"  nowarn=true disabled=false 
V$IPROBE5 30 31 0.0
.PRINT I(V$IPROBE5)
.GRAPH IPROBE5#P axisType="auto" persistence=0 graphName="OUTPUT" curveLabel="ILOAD"
+ analysis="tran|pop" xLog="auto" yLog="lin"  nowarn=true disabled=false 
V$IPROBE6 14 19 0.0
.PRINT I(V$IPROBE6)
.GRAPH IPROBE6#P axisType="auto" persistence=0 graphName="INPUT" curveLabel="ICIN2"
+ analysis="tran|pop" xLog="auto" yLog="lin"  nowarn=true disabled=false 
V$IPROBE7 14 23 0.0
.PRINT I(V$IPROBE7)
.GRAPH IPROBE7#P axisType="auto" persistence=0 graphName="SWITCHING" curveLabel="IDQ1"
+ analysis="tran|pop" xLog="auto" yLog="lin"  nowarn=true disabled=false 
V$IPROBE8 32 27 0.0
.PRINT I(V$IPROBE8)
.GRAPH IPROBE8#P axisType="auto" persistence=0 graphName="SWITCHING" curveLabel="IDQ2"
+ analysis="tran|pop" xLog="auto" yLog="lin"  nowarn=true disabled=false 
V$IPROBE9 15 14 0.0
.PRINT I(V$IPROBE9)
.GRAPH IPROBE9#P axisType="auto" persistence=0 graphName="INPUT" curveLabel="IVIN"
+ analysis="tran|pop" xLog="auto" yLog="lin"  nowarn=true disabled=false 
X$L1 27 29 WEBSIM_IND1$15
.PRINT V(34)
.GRAPH :34 axisType="auto" persistence=0 graphName="OUTPUT" curveLabel="PG" analysis="tran|pop"
+ xLog="auto" yLog="auto"  nowarn=true disabled=false PROBEREF=Probe1  
.PRINT V(18)
.GRAPH :18 axisType="auto" persistence=0 graphName="SWITCHING" curveLabel="BST" analysis="tran|pop"
+ xLog="auto" yLog="auto"  nowarn=true disabled=false PROBEREF=Probe10  
.PRINT V(38)
.GRAPH :38 axisType="auto" persistence=0 graphName="SWITCHING" curveLabel="DL" analysis="tran|pop"
+ xLog="auto" yLog="auto"  nowarn=true disabled=false PROBEREF=Probe11  
.PRINT V(22)
.GRAPH :22 axisType="auto" persistence=0 graphName="SWITCHING" curveLabel="FREQ" analysis="tran|pop"
+ xLog="auto" yLog="auto"  nowarn=true disabled=false PROBEREF=Probe12  
.PRINT V(30)
.PRINT V(41)
.GRAPH "db(:30/:41)" Curvelabel="Gain" nowarn=true yunit="dB" complete=True analysis="ac"
+ ylog=lin xlog=auto  ydelta=20 persistence=-1 colourname=Probe14_bode_color    axisname=bodemag
+ order=1    userid=Probe14$GAIN. MeasureSpec="Gain\sCrossover\sFrequency\s(dB\sPlot)|0|0|0|0!Gain\sMargin\s(dB\sPlot)|0|0|0|0"
.post_process probe_measure Probe14$GAIN. Gain\sCrossover\sFrequency\s(dB\sPlot)|0|0|0|0!Gain\sMargin\s(dB\sPlot)|0|0|0|0
.GRAPH "ph(:30/:41)" Curvelabel="Phase" nowarn=true yunit="degrees" complete=True
+ analysis="ac" ylog=lin xlog=auto  ydelta=45 persistence=-1 colourname=Probe14_bode_color
+   axistype=grid axisname=bodephase order=0    userid=Probe14$PHASE. MeasureSpec="Phase\sMargin\s(Phase\sPlot)|0|0|0|0"
.post_process probe_measure Probe14$PHASE. Phase\sMargin\s(Phase\sPlot)|0|0|0|0
.PRINT V(15)
.GRAPH :15 axisType="auto" persistence=0 graphName="INPUT" curveLabel="VIN" analysis="tran|pop"
+ xLog="auto" yLog="auto"  nowarn=true disabled=false PROBEREF=Probe2  
.PRINT V(31)
.GRAPH :31 axisType="auto" persistence=0 graphName="OUTPUT" curveLabel="VOUT" analysis="tran|pop"
+ xLog="auto" yLog="auto"  nowarn=true disabled=false PROBEREF=Probe3  
.PRINT V(26)
.GRAPH :26 axisType="auto" persistence=0 graphName="SWITCHING" curveLabel="DH" analysis="tran|pop"
+ xLog="auto" yLog="auto"  nowarn=true disabled=false PROBEREF=Probe4  
.PRINT V(40)
.GRAPH :40 axisType="auto" persistence=0 graphName="OUTPUT" curveLabel="FB" analysis="tran|pop"
+ xLog="auto" yLog="auto"  nowarn=true disabled=false PROBEREF=Probe5  
.PRINT V(24)
.GRAPH :24 axisType="auto" persistence=0 graphName="OUTPUT" curveLabel="EN" analysis="tran|pop"
+ xLog="auto" yLog="auto"  nowarn=true disabled=false PROBEREF=Probe6  
.PRINT V(25)
.GRAPH :25 axisType="auto" persistence=0 graphName="INPUT" curveLabel="PVDD" analysis="tran|pop"
+ xLog="auto" yLog="auto"  nowarn=true disabled=false PROBEREF=Probe7  
.PRINT V(28)
.GRAPH :28 axisType="auto" persistence=0 graphName="INPUT" curveLabel="VDD" analysis="tran|pop"
+ xLog="auto" yLog="auto"  nowarn=true disabled=false PROBEREF=Probe8  
.PRINT V(27)
.GRAPH :27 axisType="auto" persistence=0 graphName="SWITCHING" curveLabel="SW" analysis="tran|pop"
+ xLog="auto" yLog="auto"  nowarn=true disabled=false PROBEREF=Probe9  
X$Q1 23 26 27 PWR_NMOS_SPICE_V3$16
X$Q2 32 38 0 PWR_NMOS_SPICE_V3$17
R1 41 40 10.0k
R11 27 33 1.21
R16 25 16 2
R19 14 22 100k
R2 40 0 1.91k
R20 22 0 100k
R3 21 13 2.21
RCL 27 39 1k
REN 24 21 100k
Rinj 27 35 113k
RLOAD 31 0 0.24
RPG 16 34 49.9k
X$U1 21 22 24 18 25 26 28 27 34 38 0 0 40 39 MIC2103$18
VAC 41 30 AC 1
X$VIN 15 0 WEBSIM_STEPVS1$19
.subckt WEBSIM_STEPVS1$19  101 109
.NODE_MAP P 101
.NODE_MAP N 109
VS   101 102 PWL 0 0 1e-05 0 2e-05 12
RSRC 102 109 0.001
.ends WEBSIM_STEPVS1$19

?@@--START ENCRYPTION: "MIC2103"
?@@Lbr7okSWcyyG107hzmR0swUmmnp32M3Rs08z7k64WHbL2DsEBzn9fwdQ2UGWr39qm1tk?##
?@@vpjLry0sCHEukOkawIzNpemUjvgOK9iiS6NRZqUA3WfnFXOfp2HCLMvpPkuud3qscPJ6?##
?@@H0Hqzmuc26Qe9N51fmkMQep/q82kh7UjNRUN1vH8BeOIWoRNcG3j3znjQoHpMt+MSexn?##
?@@DJ6eQeuGOEm7M6H+HY89D6/6iZyBcIPFuraIUMDzH7IAAva5VnzeUDZFMYYveyARtuJb?##
?@@LboUpcQaw601s90gNVjW2QdFmncJyrYXouibNzJAW22/XRS2BBEYXldj3Gnu3NFg8Y9k?##
?@@SrM+qHiSUJ3Rjp7U4jmYl8PqTMW/c9oUcwNjuztA9KWyb29icteXRdcWS77j3m62nO99?##
?@@t1xeSDjEGGGn8pvFytcJeSfrPal9lSbX+GlCEaIkUC5ErfrKh7UzofEelmXDz81txr43?##
?@@7CRSlPMiQLaXnszg6buWidS9I4grKYVbD0McTH0m9NnsJx31u3nNWkcq5KH1TcJHZaYi?##
?@@SaoqUFYQvN6uIupg9AxuH1Xe7sQc43psrBgWTjvK1BVt/3EZENQBOKh80Hj0JZwnDlZi?##
?@@8lfFprx+CZXcoLEcrXuZexm4jRm+WQBfEgdgGrpWmQah3+B3+u6scR+s6VdnvKcY2jPu?##
?@@v6H3C1JergJQL69C2JEhTRlCpOlNJ/Mdf3A692N8ol5bOblDw0us2iKEj2gAEr7tgd/c?##
?@@fGH46mPn6DXWbfUcUTHMqu/MMm4c/5zfyvCod6EmogyNSOIgFCSnT24Dzzv4Vb2KFvor?##
?@@SaoqUJjKQJh4VL2xmGI41x8AHtePPnwQbWeAdCcJT5WqO96e5kKZsjpmRPDquOL9Nra0?##
?@@asagtFOSQgc5gZATsV/+pER6h6CeCeFlwArKGdp2AqU2h16gTlzE7FzSC522wiiYuxkq?##
?@@C5WL6XtYYjOgm5eHpJlFiA3kaItfs+/eJ2Bpa9wz6ry6w5z8/qLsIMifqp0PRBWkqy1H?##
?@@HCfPx2HYsC/FWTTVK75zvcRkmjYsFzzngqGHVr//JTfMgYjqQ8CuGncZnvH4Ci6xSLtW?##
?@@eUe/4YTZzcCAL6dRpgQtY0FveZyuODP3PWY7aLuy4j8t6BdzqravkP6AB4AUD3nLbGmo?##
?@@Hjn1eDHl4tO8ALVKFyKX3SGZRBIGDY2bK9l+uSfWD8SczufacVaZuImcfpAManltbmsl?##
?@@kyev2x1nHv5hPBE+AH7fAHhUgx+fW2TRVvfJ/CF02AitNCoixlzV0h2+27wxuxLcF7+K?##
?@@sCDZ3jXzHnSOQwyv/61JxfJHp7cQcRHj4/t/Cr4DXF4TwapcSozPHTCFhdlx9cuT0aCb?##
?@@3aM0ZiezAOXD6pmndBxeemuddB2klA7a5dkZ576WoNbPObkVEe9sJhXe9Phf2NhjMZJd?##
?@@OikMIt0/abDGml2dsJMF+Al8totT5iu7nc+HXpZK01G4z7pxqnQGHqA637DbmdEVs7Q4?##
?@@001182xbWo7twSur0VTUw5Ieo959M986iHMw9pv2roYv1ITJnCQZvPBMgrzZIDU4BQLk?##
?@@qNtAG8U1/dFpLZ4uDvEr/zMG2GzdCr2Cm5KsxT6oXRktA+n1OU8co/g65m3hEwhI1Oyd?##
?@@cQImHtxGUj+q7WKVaQRdwY6DOM4eVa/oJ95yWTedw52G+UWUf5HWT1yEIwDyyDP6/pW2?##
?@@Co14kMsHMa24TWLHReaWOuHjF+jeKuxaa/EUSfi2n49+oRxHMfsW6HpfT2yq0PzAK3tA?##
?@@C5WL6bZyroYbr9WhkR3rNL/FkecmevVe6qzyyUeq2NHWhObHq2F2129B5F6bCSDlR5Ht?##
?@@YHDiQIatH7L8H4X5r5OkxlC6qAH8KS6Hm6Y3/JHQ5L/31HUt5jfKu9v7UQ9bSsOTclNr?##
?@@fWkLQ/ki5B8Gm7ETTHxa2+0+OsoJDKY4RFgHYiLzsiq4fXPR5QvrLQJ9zizpEgGhJ5ay?##
?@@ygDJ145Ov7W9MOSq2E7r7St/VAhM3awToJeMbrL3rfcFmV+iNdJp1P1dReQQQfDEsdKj?##
?@@L8s6Vlhz+K8nKmxHoxNy3iUnY/PqNBHU6UnDvB7eTJts1xPgMQIuhPXwj9HuWheESLCj?##
?@@8Eaf9eUdW1z+IcU5i8ew3GjmustYz3ZJRHEXgURVmK7LVCK06xm1xMkJmXWnp0RZINFW?##
?@@cQImHvr+GnDUV2tApu5vLI/1THoZWAISeOTTxTiOSHJVWsijDgr6UvyDb1OZT1yPOIEM?##
?@@BmorL+BEOOaV9jy+wVegPBidoY/SFiGF/a7XJRXoNlo3a3h4c4L8j2NhNooLLsfKYJ4r?##
?@@i+IWGHKcZeAYt4IElPM0JoaiF7+2uEL+Hy9gMWbTZeQsq3LGEqNho44NLPcZczRLcGw6?##
?@@/K2EGmOWlQN+HWNoWuvyn/9kfi8sRz7YtPKkJO2BZkDoXPoRt2wa+6yxXsKFkOPQ+V/n?##
?@@RYje7nx3r+zNnct2lMurSVf2OjdhPk4DRIJp4NuNDRdyGuY+qZuQuxhhIr8syAzZm8By?##
?@@di2G2NHaktSO/TDCPEF9MmaDO/lZ7auTJHRdKz98RWCUTMVrak9oxKC9OjxYbhsUjIDl?##
?@@W0WChhNieUW0j090NrKXP7GrRuGem9ySZ0ur5eJKQhJYahTVxfrgdKYiHKLkLruS4R++?##
?@@eD6siQsoCcfMSJMxWJoan7bd1hNiuHBgU+e0ROCYaR+dCTu4WsdyJcP1PFQYK4DmNpJK?##
?@@Ecn9+1k0Oc12PIl8tlH42C7pJqRgROuFbZCKIZR0yRqO/jtS9/iCudEKcR7v1m2GdZfN?##
?@@7jV5RItP7e9oSTJYHulDVKFsp5IAMLUMfEVaqVNN0SCRGT6l71zl1lBXIxSEriteUTy1?##
?@@Y4obSTYdN+auwjOin3PBBnWtZzMF4cJKdgU56qarx6g4x3Yrf+qthEvqLaLU4+M6tdbK?##
?@@6AEGMmnYbAgNolQ1sDIafL+2fZmzA6fNvdzzA6fE4saGlhZTZ+iBMatnXI5/6higZ2CS?##
?@@3aM0ZvU+O7Ld8gKRrqfZAH2rfwYpNHTtovsXXgqQwr6qD+MLbxex0h+/GhhqnxUH8IwT?##
?@@LsIn/s0QCcn/m/UlW366w0Gw13vsZAK4e8y8dBAPAzgvK6jTDYpA2HLVq5na2hXp2ofd?##
?@@I2RVMX3fMCBzAphLdeuMWn0qyaYW8VLkJxqRJBm7qYaKh1WKGSLjJtM48tu272xO8EVV?##
?@@tEIlPwo9FrycoEUonJqyXmmeN3FH4D0V0Z74XnipQN+urgSsRz+GTdMpHvcCimxLQXEU?##
?@@nX1uTxrlhj9mvHA6EoKnKdy+Zdlbh15wbejzVm8BB84BDHSahHnCIQRKdUFkSyluR503?##
?@@hre3XpqHFJm0Or7jB3tgyiTi/oh9AkVQ+GDlUP8smkN8IEXLxWQ3Z5j3HxhkDNzI5rb+?##
?@@b/EAbmdwedyxRmLXnWbrH33/Gq8UeQUIyzS0u92V+arctaLaZgDkudYuee6EdcD+ckML?##
?@@2HjVrHyVbCk82YKz/vx1eaR2tZQwZ1cS30+7qOpGXlIjq/dakO9imgOhMwNxCQxgGQl1?##
?@@cQImHoV/nHzTSl06PIJfK1nrJPLGXribFdTaT/lGLArZjYw3BH6jFHvMjpiIqFJ6H0UW?##
?@@/r+qyuDKwKbAHQJi7khHXaY5idSfNwF/h43DcWA09bSLXE28guXY/+sTxeTSjTko27bs?##
?@@o7DhYWt0iRvRiy4FIED4Jq75UOQZ+gNUDhx2BKXa0i2loMilf5nYGvCzyLpGuV6qrsCy?##
?@@1FaISxG5GVsbY/J6O8fIiF0JaN8QV8tKnbtx3ZwUqLhzKQY5t2mtDz37/D4/GFiLDg4F?##
?@@wbIdvFVfrZRbDLrYJKeknfNPVqWjokejqLtoGQlAHIIsMiUv2Jjixc+1MuKLsRRSQJvS?##
?@@itkDwCTFrMD+t0Bc0CynrYzKPG5sSbGPUEXA28CArSC8WMhm0PKc3NM1OalCTiBLNxf4?##
?@@cxNMz3nlUqO1Lp/+biXN+Cy52oIe//ikgk59rve+16oxh166MvhcnHP63AVj9Ds1UOZB?##
?@@RH/LlsjERnTWR84bC2vA37yXbShELTxPpusZ3MuY/LestzZ+dKphnwoqgeEzEvM1lcPI?##
?@@Ue/DEj4JJPUwNpbE20UzSspl+y+xeDNZzkQSdlExQdGdJY+2TQuebnKFmVWqZMXYUm0D?##
?@@EtEQU0lAZuycOWZq7MFcq3HLbTC1NYuAud0/NrqMZzcMWgL9JyJSENH9Us95Tj8euMw2?##
?@@5/nz2rwiy/Vv9NBTMziAzGwm1OJeAi6laAQwQiTgkj816PjYzWo19W+MQQ2t5UfDTAGs?##
?@@WCtJfU7msFiuNxFovRkooHB8HpLAzstx46MJkERz6iHsxxteO2shcuY66YJ4pbY++XT7?##
?@@2YHoBXY6p/ebDkEjJn/V7uiMLXOw/5cZyEotPU/dORsQpBJax8Ns2+2ZXoArxbtDKGdw?##
?@@NgfAwTWBqMMqfAM6p9wiL5P3+BMPvX+4CF2BODMrdGoFGgaXFYswroAduNeE39oLoeE9?##
?@@jwRjeZxb4QSxECPxTEvKY2Jtf2vdJIqNBvSTJcY4czY42LKTx1Q8YLDDlX0wqM9/w4qI?##
?@@jOoqcN5oDpC9fxxjYOxCdL/Eu3wh2EC0Peqy+Vp/d7ABUJUt7kXFYQP37sPIedctY+In?##
?@@9XH+r4wCMizZMi3peci0nZ4CJayiXueziuAvVpjyH1wp6V7mvQ24IU9+qeRiJdBw4U8o?##
?@@unaYUUM5vbiTcwgF7w2774mWEllmvKme8P1fySJ4OMsNsOwct5heI3Ya2AlLKIyOtedt?##
?@@t1xeSEC4y7f4FXWiVE/TdlqJ7228XXBlCHQ/U5m/23edM7MAYZ2UEOLulTPlAQuME+UD?##
?@@6AEGMnxAgHZFUz1lhT5ROqX/CsFW6pMGJrfNdoKD58YiV1ed8T4oATQFR6Qfwax9d6yY?##
?@@OSH5yqoS8XyZI9/TNtQgvtxCPnYjn1S0ucCnqH21rcj6TpFL5MY51B/I4d3xaKLqJviV?##
?@@unaYUR13ZCWnYVoY5OWN2SdPtnLpDbilUh2ltaX+6o8+Fdlp9REzVhaqRNYZOSD3yera?##
?@@m2tInuvwxunjVQUsc2MzHUNFnPNjGlr2KuuJNxFBSzpDqNqw4C8YxcbiJom3QlKoF2FI?##
?@@mFIPlYARMzSXS5q5hEVwnzJ8+AdeY5GiXgREU+pINWR9j/7k9NmrZCtQNo0iU5vANUJf?##
?@@vZDRWkjnBuVpiqn3xeRQtXs7n7qTnlsUFyWUXbJ6htiJRw8vzP223qU+X6IIvIMkt5U9?##
?@@bujtFQyhTtu6N4pTxpe+ni0YAZ/t+mfb/sYOTVtw2g9TkMgUFbuQxnTYmvPUZTdpgDMI?##
?@@/8e9I8o2htswJ5NGtvKRh6Tfq8im1RvNU9qVjyrg/d/yvNlATsHtjNuhwfj9i4dYAlm5?##
?@@TMRkWab8sxY9QELJ0BYaMUlSo5wd2ak6+YQROhZZgkv93A/9jiWOBKj1Fw96YvYtkER6?##
?@@7Sxl7LvKW642DjAVZPojMhmIBt8QimjJIVWc3ZfD123e5Q0rRLa36pRDRZm2EHqCPyE7?##
?@@MuVzXyRd4d5j/vpq+jnAGumCFTUGflGvuFwdVJxPlQGqr9q5EGkOfcU5Ipewli/jBTVJ?##
?@@x+aQztinEyDyYcfmw8b43cfELa/bXZSYjwNdI1ghlFmehK/hxvDmERGFFtWaDqwSQ5WM?##
?@@3JohDpZ3BnBUXlshBOJazp2PR8qxURPVryiJDyCOMis0TOuT1Rai5PzAIhPsI0h5lIn+?##
?@@9XH+rwafaSS2QADwFPBOUMBWMwevVNvxyOI90CQXvPvoe4HkmKO00YAKzIROBOOvHhjT?##
?@@8lfFpkcpGfqv7kZzcmO8KoUG79oL2zsF2tP1gQ5G84Ht2Pu/lyGL2u7FbuZggAV5twLN?##
?@@/8e9IyYrdz3yQbVBl3To3mLkpi7dAQ/01h5HffWQyy7A26G3ksLlD+ZpbwB+EAnFhHKU?##
?@@cPoTxpCc4tduK7YcOT3bxBCg8rTaeno2cS5WDNxs7IQY/55YAWTEuN+8tjDa/sTnIevC?##
?@@vZDRWkgjcHccUGfKXIXVGKMnTV6nuNxjd85yNueC7cFDBlrbfdVZIcBzpyf4064gedUy?##
?@@4s6TIBu1dlfcH87lEJy1aoLpAYUkRMQqHercEWcp75b7xOdFW3S6ky0zDyQxZ2UuBESJ?##
?@@ywjcMNkFeCWXEdTM388FFH7Kc0sD2pWZV88IeKyzEU/oH9P44O6im9cuZRTdeoGuSM4l?##
?@@iMjdDxq+JVXL55Z2MfOmelCqN5z/xyAYwygtNKURnei+lLUHZNVl3JW20yozm4Eo/tQ/?##
?@@SaoqUB+kOp8Axxr7EHw1YwytaJJGJ1NKeec9tugvmCyhyomTeXDq9vmeOyImeyYUOCER?##
?@@ygDJ16cE77n2ahaOuBnNC0wHrsO7UO+CVSrIM7Qx2nI57ESCQlb1/Mbnc75brmnPrEOi?##
?@@e1jlkhC2CUrO7/GEeEtHd3EZRGbUoeo95WE40wzzWW/Dsd2+xQjbPRo2s8ocCCnTFmC4?##
?@@+Is3uN3O171l0VSBPp48WEI2hnasKGY7HfsUf6mhagdh1dmvQ8Lj7Tx50o1VKbwVuorB?##
?@@+ZRLES9Fxj0AHIIv/QNftdId+rV5kNkeURi7VJBUDLXMX0QxUzebOH41vsN/JTR2ocms?##
?@@WjxvLqcoNIHXWNXx+KqFv2u+jax8710syvSoM+YHepgPE46Xvt3uRIQFlW/FrIf/gVOh?##
?@@F/xwDZ/tq87w79k+Dd4gusesOWnryCfaLnJdkz5hfR56DgNAvHYABTVCPHUu/tzEov6v?##
?@@VAn8HJtJQhfEvBo4nuhwJpdtuPBWXpPj+KczuliW2RlTyEimjGdwrvsk4kyq9e+iqRNu?##
?@@Tc13sTFWe0YP92A/wco1q7IBGyQ4a0OYy2vJ4UAUgmpSeDVotJDLvAaxEJo3ctNWomk/?##
?@@asagtK6hktZdlFeeeY8kxH96yRTD9Osnlooa9o25fWjEaTs5OT+tBAk/PN69pPcxuh0f?##
?@@ywjcMLuRtjQbnDBpmXDKIuejwQ6+mdhxD3465O0nMvqh3P5lLLNcS8ZB9FJZs+6UHXa/?##
?@@fGH46iniSMrdRcXUMTQow3Pm3XZiD+N7GKPPQco14z8iHqbo/Kgn2zosqfKGmllRIWDf?##
?@@fWkLQ/pdWkKAPlRRRSDm46CyGlGCjtP0NnfJc3nDKoxtbGc7wdoZecyAMgPr4WHPNd/B?##
?@@IltC2ZNJuIeyMY+27hw2msPaGbRMRMJPppGrMNJboURIM4c7OSMAsPGX9O7vRwaJePaJ?##
?@@q/V5JMemLrGk+n+UpsCQCVWkXMH+86HS+EFVQNyWdydr+Ox+H5jxWNFtheZlPk1YLAml?##
?@@FOM3BIZebOL+2ASaNwWMRcFWuWLJ55z71F79itr0FXkTqROxQLOlu7fgmFv5vUDtvsZJ?##
?@@HTDiHxXBsWjvk2cb92TcS8s3Os8MHgx6Hzo7JLde6zJeJOlHlYCv3I0H6TVhlGPTPutU?##
?@@ZqRUUqeQdwTp6SVI/gXWHhiwIImkLO5Mp6SXJEvp/3q1MT8VwkPGIzsZIs2CVoCXgClN?##
?@@82DY/u9rBVDF9Mg5gYESOLXPFUnulrZlwRCab07gCq8t3YN/230dlP0kochBDo/UjMsv?##
?@@5N+60RCKtQCGxG2KqD0y9Ln7L6O5+TKKmGpgCv3emcSuRcy3nNhfc3gFNZpp+RXVpSuu?##
?@@qeRTc40efZjedkgrU8TtOGqbdZROzae85I1cviYIFXJbdfGvJIZW+CD9UogA8FfR2iAI?##
?@@Qm6l5RWIJlC4q6UMgnVX4PzYfN8HL4PDE2g1SBrkOzkhV3CwXVHyhezoxmodSpP/704H?##
?@@n46U/5T15OlYhm2obXF4AieN2FM62HpWvC6gxP4ctWNTLRz/XbvjoNGrUpiumk4fETWW?##
?@@ZJIuohAzh6uY/+QPMSR1rH1jvAhflrBIgX836fur3wldDiSJWAjKI51DRzzHqbh8nMBZ?##
?@@xdVqHZ7F6d2tOh3I287EFS5WdPU4+Iu6O6lwmbynB5QD/OhhzbT8zfjMDCR2Ux/JUpwi?##
?@@EtEQU5/+uBRLUro1TPDk4zCYkOBuV+GGos+C0ULi4BxawgPdisNX1nWEBOMzgb3spzFY?##
?@@94IkYEVOOOYmGjClWitSwwvziQfdQMfNnNoinnyGr+8vO8SeCZ+x85pDf4D08kZsigNt?##
?@@CHtR4DzFxcy9xP+HyXDKRRcHtd1LAJKDnX/H3I0whOX88GkfmFrtk1oXtKDO7ozAOoUE?##
?@@AT/MdfF/dscXCf/JNAvDCUpSfGf5dwS8UxtBx9e/BeyvFAYqb9lTJipx0jZKin+KvZus?##
?@@7jV5RBYpZfnFkeVwACWZ5aNGuVx7Eo7M1TJtdmN9p3/6OVTWasrv5hldfxOHy9eT0WVW?##
?@@zyspkSVxBcCykcveiQoI1a0o//yRvHYK6qxZzEyyoQyjbUqHDBKOXDU9bYRXve/jvs/t?##
?@@+Is3uO9SWp8rnp6OyVi4VKGFjxblzQr4BLJrKxK6sF7bT+3iMdfeq1mQDhb7AHhnGUO3?##
?@@Daaxmdc9qUwG2INWtu5/TcebLqTqjXUVCNIc0TnainV++TyrqDwVa5qwr6hKYAiTMy7d?##
?@@3qtHvzbfymaq45voT8Q460E8RakiyGLi3FR1nhi9jGRt6BCiAuvBtIfnQwbT74jCVDdC?##
?@@u3+rqmHXcLq/O7oswmPJZaQwN3TZIYXWTVgvNK0iX+/HUg6D/OyAkNkfnuqQL2vyR6i1?##
?@@GAWDZamP/vF3YOpMbCqyGPKIOEeoj/0ra6odmn27jBq1StIGFkABCYgEBQtmn20EiZIO?##
?@@XVaoN8fWRrsPHK+y1jBAmjWapqteBwSUdwqM0+KAy4NKl/DfoNaad9aVoIg5XWSg/DfO?##
?@@Dq/E8lHfdti2F/JtJq8ueaqZKpRGrjIGlXknsn0nrlLoZQ5UyHIdik0Ddk9L/eUlTVgV?##
?@@NxDTGRwFLEaumEyBBhbtOiFlow+X5b5r8z9jolhlpqpmfY8PU0JI0vhieZus3csrYX1F?##
?@@dBxfJ1GpxP49DMrTKyxlIKGw4y9etFqO7fF5vjvY8c96k3TTKCOcDTtCgTlKRnR14fn3?##
?@@fWkLQxCRD+oCFcwPqJEcumPUShfYnYkc2/tIWylGcfHwQHFliQ94V/eBr8OR2VAaaw46?##
?@@kh6cg4jSlLH/GbAqIb1zYGZ11Mk79qzBMe4maVyPY4Rex7lP5uPIvqd22dwEOwpGKZ/5?##
?@@5/nz2mRas1ZVw7msj3fL4QmUpizHOGRwEidgR9Y+78hdjGO1iIUcVrzhv+sBicF2Ykii?##
?@@aLV6A7fVNRf5RYXcr5kMF7n78/7vW3U10ePODsPYQ7pmotilIU/8yyuuCUtun0E8Fx67?##
?@@7Sxl7C3pETZc/h/xEkugxxLAvf76qHA6bLIjNI0bdvcYM3++68AJ5vsk2gOPRPZBuSCW?##
?@@3qtHv6d2JGfW8A/bhXk6P742Z+gaN5mC7Wn58FUz+6wsuSiPFwiAbC/0iaEoH2L36oz0?##
?@@W0WChoX/gqnl+xOCLFyszLrFfZ7i0yol6awZVnaL03CH4+5Eli3v6HB0Rvzv7mZ/oHG4?##
?@@cPoTxm4YPdAupqW1wBB9MCWbobaEWeW0UQH75pXe0EvAz+9ZiPbXRxra5VpoiKXZXbJD?##
?@@HTDiH8h7R+WSp5L5eJLbSxe3n+w4QvJG5WFmK7FtWnsljTXStrq3/Us+lHViSKlVVfCQ?##
?@@GhapFpFRGIhZR+1F5o+spI1FOjdci5givHVWShX24FPfy3T9wlle3B+JOzZxG/vRBoid?##
?@@37RaFwTb9rAybFptTXIA8+8HSHUZ3DztE4ccm2dhW4Hi5hQFcjyvo1H+ANE85Z25PG2r?##
?@@zBHviBh7BvskKYwhGUvGfnSbWdTZcAqoSy+tcR46vawYXZbNil/iBA/ey/Kc27Y8KHI1?##
?@@ab2NW7jnJe/s6fPf9OaGui4l+tf00dcTdlC3JTTO4SCuZiAeOumslhHhMbIh2DEarnBc?##
?@@xt19dtYWqLRmxaPLaBp4iA1ltQu3X8ZrOQ1VPCGWLlgAuJZ24xPwQCnRgy9zHF4HomPx?##
?@@E9ojrPKv++yp9pTW9OMaBE8B05z5bZ/1ih5rVLZvKZ1EDnR45BwyhUjYx8ljzqpkaFFP?##
?@@cPoTxs5r7FFxmBYRG37IHH/VLpEri5oKeIWyLN7TCyi8CR/r1rKTtOybgrDK2otUbkoE?##
?@@ha6kBizbIB1bFztp0fFnzxT/Rdjt8DcdKFfVeXTXJr+YNaz680NxRvUQCtvFvUF3rVKk?##
?@@tlRL8ALB9zav6D3JB17w4eaxdgmJDbjc/nnDaywZNXMneRldLP6YATnKuXZG+KLgUC7U?##
?@@VyM2Jd/GIjOXTfYdw5nNhuY+wtby0G/HM3f6yyZNQL55drSlWzXBho+CN+o6SbpsrLx1?##
?@@qNtAG3fRYjXC+arUoiZR5IoyFyH7NLtIrUz2FKP/rq9fFqmN0mELJ/3fzGj0EATD5X37?##
?@@3aM0ZukWmUHFckYJXiOCC/YR9T0rhnhVwMG5KRMKWfzkaakA7AtMsl5bLFoAsYTUmtQC?##
?@@4s6TIGuv7XnQ0CsVoeB4QvAGKH/8bqXVXjsXcw1uGJ9O8J8bXi258BzHA/kpdW6VeWKU?##
?@@jwRjeUqksDUcQcTOegW8WXaZeVgjtyVPhvx6hCwL57TJUnwl7EYkoSIEL81OfGhERRcB?##
?@@TMRkWThhjKtDX4N8yY85+mqc2Sr6LObnpQ4cDwitM0HAe6b6Q4ALj1fl/iHzVolSKflG?##
?@@nX1uT7QRxCvaOvPw9LynXvVrYF7hU7sAkhIV7ukRyZ1OYc8jofvR/QeqlcDHYY3t6LJc?##
?@@xt19ds6HncKzwPjI5DQczJ/PDnssi1d8GZqKsCp2A/h4djxOvpSwGCfTp4CExI36rD8U?##
?@@K6ju9L6zYy+7BgKFEYnGHUiz68hgWCcjXHqCDiQe+wsMrAlhr+wJc0W5c/CWJXduQDfS?##
?@@6AEGMpzQJx2WsXGmADPDMSYrJFvVfuSyykuM0bzFloeSqtjkalybAv1UkysV0rpfzkY4?##
?@@Ecn9+9y1koo/6TfYhkFOnDLXt1XkLqiGK3lDzx6K6y9bmLg4JVCOaFqoMuoE8QdE7wce?##
?@@oqjOCDjPKVzTftwcmA89FDQP+G19dKgNV2SG2U/9imZDQBuZQKm+mWADhUF0UzlGgy8G?##
?@@6xs/O53rPA2C1f4ZwD2wuBTBbqf2EvLvibmUHJ1hMwKDyCRB172PntwHgD28YFz8CekN?##
?@@mFIPlUOczZguq+SVAVwVH3NV5l8OIiuLKe9o4CSUPLufXscTZKjeup74xiDpn5yRAyUr?##
?@@dSVygOKax3iTZ56mhqoNVY9cA6Mh40VheMsXlTrR0iJhBvYX2yCb9E3FxT93TTWTzBA/?##
?@@asagtHyHU3QWD16oI9GGXR76gm2hezHnQtdDdEImMf0bATufkWoPMsyeH4GZa1GDUl/8?##
?@@u3+rqjtNgIARYLFmM44upwu3W1SX2B/A2jV3QGU47U/NAXwjC5fa3EQ794dsNYdee97H?##
?@@zBHviB1or1wc39FBoL0S6Rnxa25Wx5OxPA8KZlrxlKHzothnIsbyTPdBjtGgcXCXjwOl?##
?@@VREQdNc1prwULcLwSdLU42JZcd5UZ1S8XLtDXWx93ZnXQofS18vy0+KGlOLc8NZFqmQ1?##
?@@asagtKbwbc0uddkr+OwLtLkE3zu9ZMp1G5zSySCvlrP6Rbq/jmtn/wHsPiuBv6fiCAIw?##
?@@zyspkSwgA3drF8ZhYrfHjsEE0SR3cPTfeNFArSilqahcbfeEORt3rgNHDlYPOcKjX+UQ?##
?@@qNtAG6mqvJRdzF2ZDOggdDaQE7nzKnZYABuyy19Vt5YpezHxyZGtzWOPix9dbzTygkr9?##
?@@ab2NW2J0QLF3zo/FwAcbyENdXY+LmvhuL+KREvSL3+kiVI//O/BwVjtKh43MbxYrBD7X?##
?@@3qtHv7pEqgajFl1XQBdJgdhFagvMLTdOSeWOpQvYY/ixjfYS5Lj5edjKXSD8E8ybcjY0?##
?@@i+IWGBlPD6m5G1r6LJ2rG1mh9dGgWOL7+uaGOf1gYuMP9EpFIPLma5CYPKcVu52CaS4d?##
?@@GAWDZeWH1LNExdnkJmdyqddllnMa1TBOAGVNwnlREP18oelnQS2jBs25tNcnCmJFNaz1?##
?@@ha6kBqV1lP2vW+4ezOAzRe/iUegfAjO3wPHE1swbZT6HHd7sZiekOWqKRQKYaXHyb93j?##
?@@itkDwEDELUdJyfRQln/oH0HPyRt/vFki0SenBbUGm1Djsrk4RfBay9VHqn9RADokiCqB?##
?@@A1DyJq1L0ao7Lvid5tTJ5oX8MG0MuV9f5iTWt6Uk4GaC6wazZfR+5nTwAqgWPCRHxVqK?##
?@@iMjdD5wMaXXG/nDm5GavKspeersXUhAQgeAcJgRDQHLTmS9EqHtW86iE/wi8dgI+uhNw?##
?@@ab2NW/Y8TPBlhawkGzHbM3MDPVkwEWlyGQGx64YdTC8gjGDj3RwHlCjbcCCqqvgRig21?##
?@@UvjWaza24/Ha+/mMq7Jw1SIz86rUZHd9s9VshdyMP+5ULE0rmcpSudNVae2YoEQt0zU1?##
?@@D7jXSs/W4LS3Pf6OvRQVurPZnK1EIuarzk6/ZZJLjHnY+U3X4n62T0+/7g1XAS1x3BwV?##
?@@7CRSlLn6Bk1NL1cR/CSUy80a2hiu3LnFeoE2OC0E2qtZF48nms1gqzvA5CFM0leTKGYJ?##
?@@ZZtB+nAJCIemBeqixqIzgeIoY06VBZBBeqDYmVlAhS8ZAW+Kt7oX6HKa44CT0FAIySUq?##
?@@Qm6l5WUJay9smUfOZiFlq9PMryAliM447SrUfBlT85O9R7xDuf60iGVMCAk3oovUE+Hm?##
?@@12/BVCIRgzbkTopmuu7tkMAR54Fuxy/55Ju6LXM41O0nSvTbgqYBdXdUhcUu3kHv9Wbz?##
?@@yO6jJgY3ovVVbK6k82rsMKCu0QWMesyA57jEQdA2SYH6a71dryqFyN0FJDE6aSpQrzRo?##
?@@gYxYpPy4LyXPX5rk9sI8rm1y3ze1VZ79oe3woMWZbU1uBcVQN9pSLaYEeV3DJ2EuwzXD?##
?@@GhapFkuo+7Y5w14cmvwodtvRGvudhu5pamfC1sHPrLazSPgvbuaFCVG9QXYWNOHN48Fn?##
?@@25IOtWUykf99xwRWTT8q0zLGL2+due7sZ8kjhb1NSCqwuohdMEdNR+fI/e3z0JrEFXrf?##
?@@vIe+AncKALo8LEXs3T3K+xGWWwgjJyXLe3mdXsiOz4IoZc7X/9T0nwUdgLQUCnO4aGXC?##
?@@sSnsNgeAnc3K6Mh6LQSL06erFJk64Hr4rRyNHI47fOLLqXz6DXqTO55QjGkRMxohf7HK?##
?@@jvxQIUXv8qOgFzZL0A9nsMANGdWqsxHF2wh/SqxbvsFY1sCaiHRvscrB3BPPhhCktuuq?##
?@@7z6MnaQGmN5+qrRyOSr3/5Yt28C+rFa6WrS3VDpui1Hzj18G9sQGqCf5TPGypzL7+M9M?##
?@@jOoqcAV/Bno8GTbx8c9uFZNe7jAt9jVs9lt8/QpHydQMeN0RbILMU/lOb6HpyrZbfrB+?##
?@@QWaSjaGQgR9yU1q70xdpRGAEDOz082zgd/gkyUf6NE16M4jimCCI7lSS+P2SStR9JssB?##
?@@psoaaok7li8QV5CGenLG7k3m1hv/UBmBWXt1DEzTYQ/BnuvBoWAodYW+rfzHDUzekmU+?##
?@@p9MtwnBfqORTU1k5yDjCADcV3wW5Xmt0R8NFh+gFmttfT1ExOyYzbj5PPau9AMaW7wn/?##
?@@uGVyoeDJ8DDxqFEaX2ydDcKZa4vuep3zZ1xJbEUfozWlDR9Sib5MPRWdSk+7AbhCC9fW?##
?@@CYRlOMHSSZ7OHaZUXRg+5kmvLIPn2f8h3CwJoxQKMxYHGXx534oXS8DFUIE5zjeUIaiQ?##
?@@8lfFpgX/EC9jkvd+cE5L7jvrAJ8HrLkNTWeeTgTmYVgLdE23z7j5FzjHHm/tpm/AmHqU?##
?@@49aneIgthi1IOVH33pJGiYRIWDa81b0jryYIuyjM2php0CLYg0OfBN2EkbOwvZrIFnkB?##
?@@eD6sia+zqNP/3omOLrhheW4UC3Q3LstHDIl+IDjyVmaaD0/lp8gdf3u/ZkRaeSN+5ghe?##
?@@zRkC4M0pAJrIW4YpTCNFUESyp0oobOkAobIdxK48qd2iZqVO+yBE7MHhJTD3EsEqen78?##
?@@vpjksyP6MK5maVWrvSaoR719nKUK2+z1O4hOZn+IsduT7l0ZaLbMDeNbNqiNtDXYsWtP?##
?@@f3sx8yIPuae3Au3tqaA86ihmAojGbE0yyJr3S5KCRyjSYKt0LeDcTxpI++xV72s5NXqk?##
?@@YHDiQBq5dRtTnsFIvif/dx2gepIJyj5ODp+U2tkg9EqiylnB62zyg3bXxKAcb3Z3DtP5?##
?@@1V6bo8WC1gX87mTPZXgNa5+MutRcD+4zg4UOb3yg0+G1IBKhKLBjXfLPyLH43rkK/Bi+?##
?@@RpDxRotNCNQ07ucMyqh9z+eBr4QPFmnEh5acG4U4YHGUYG5NQbcXWPZpzFn3pemZ7ga1?##
?@@NxDTGXPb8NMgdynF94vwGX1XyLdAWC9ch6jaQ4UvjpDaMaV9LPXRcpSbFoIsFccrMcVU?##
?@@7CRSlKuLHX1UtHcL9A3R9IKKv0cYuewiGzE9m7NGWBa76od+4XaklL6a/U8k+Ut/NBXk?##
?@@LboUpYJGhVuBnU1uL3BQaP5rI0kNzzvw/UNrdp2YqLRSu4LRVY5EkDZ/JIIPpSkTWpDc?##
?@@TtWKCU0B4mTj9FxuaC+T7sieYslcvprCaHUnda0kR7SowUuL2mgLU2SVXZNy1r5GtxbU?##
?@@K6ju9EOpSQABCjA9hiWXOcPBQ/NGJE9ARFkSPgmikLLrqzGNgOidS+wfGDH64EC5U/1b?##
?@@wKoKZF8jD7jG0vSVOeDtCMHFfWcUITiXrUDU+fXBpOLUwEwR1Bfn1f5f0hWuDOgQhrer?##
?@@MdxgB4vnZsgn4wE6GVbZ9Ze5mI3eV+qIj9f57lRtv8whhYenQBcE5mRC8XiHGOw7fq1U?##
?@@unaYURmpMa76QPLnspobYZqzDxgUaBUja7L/bjSWDXmshMpAKm5vDv8G+CPEKfqWq3fY?##
?@@X2fO6ESME39UiFMUfHtarAfOoit0auQcxsgjr5qVZyShYAOxhL26hbcqp3EwKstU69r+?##
?@@CHtR4HedVmsfoVvjJuaxMAUV21/oIHZiWBo4KCZFG6emUXtzWBWPB9z5nwgdkTBT1Fs3?##
?@@+ZRLEfeX4AxR8sn/5QQRrNTGVsd4spYo8TThYu+JirCT1jMXRrECKORwKeI67AAarn3c?##
?@@+pxeaWhY+fkNBCK3rIr/C7BhRgsfPGuhNT+VqYgQvDSZVulnQ4dfLpHKercYstysk/qu?##
?@@l0n8PMUKGN4Pf5Ek1Td/MGszCSI8ux4OdQXUs6xPNqKzGAosq8izXEVjLq7BGDsolMI5?##
?@@2HjVrKaqCNz8O+2rcpIZbU/16nbwYM1nla3Uk5l2zahg+LV4lhPUn9rHAkhHotigYuDw?##
?@@jfM9ybtJFioDi9tosbNN8QKAOifd/mz1vVxxlWmdEWV4CaXti4jnKNOONrWxirTFVlCt?##
?@@BmorLxxzkl+7/JbxMO1PzUfUklJQmC0qkJ1BhVExFlp1YLEHS4KKYssDY2uzqTu4cB1g?##
?@@UwDpw27MwrM40DVU/Gj1qb/xT48CSsZf/lAq/89bUSESBqYJrkkfnXiFq6BFPFLHkjIr?##
?@@pLn0uS2kyidCUFBssFkNCbeXMEjFdcfk5QLT5ErlKGEj10fL0bDtQMspst+ad5WoRGk3?##
?@@GQ6WvvJZ+XXbEg6GSL7BFE8DORB5rlNPckmFWbCQVD4v46ezDDebcYbcgSN8T62d2opj?##
?@@WjxvLs5+lNCjxGodoU9NKlaBYl+lC7syNW+kyIBA3MV28D2Eebklrvhinml1wbmEbyLd?##
?@@Z6xnq2aIUH8j5aQlpKkVPN0cDNS/rlHySV2H9rOYWkWT78FahK7Ai8E/zF+HyR0A5/e/?##
?@@+Is3uKzV+YPmjgrKKjuOglpPgj9Dm3fEKG0IhEGLbuClwvCfIall+Jd954XDZG4XObHM?##
?@@Tc13sfnd2ojaGFzTF2Dt+U2ESMP6WqjS9/FxrDvn7QuxO3/GepGhpqLe8kjAlbM2krCE?##
?@@mmM1RV/RNqaz0i2/WQL2dppU3zi4jxImbLDNR3WmQWhD6iaTlLUUKly2B8kc+84qVsn4?##
?@@ywjcMOBNkQ3rKo9UkXAdvpUKo3jPiiUcyd9gIDfraXsYjB0ul6nHSVVkHudmGs6P/NNv?##
?@@VAn8HGVDoqay/s6F1QRgogO6u4FpHMqXxdmEFOlf4qmu/nPZ2Enp0p24yil0rriSU60S?##
?@@AT/Mddi0s1C/mnC4h/PMtK3RBdi8ij2kb1wefmzuuIuezLAWd6dRBavcmpV49vgXDmYE?##
?@@VhojzEDLhW+If9pl49D+JwHFe/uGptM4DIEfS2oPs+N3ZMwLYtGYeXsTIlY5Khb0/ubf?##
?@@l0n8PHRjXaL5SQyYtKu7dHrw5lPpRh0Uy3CzKNatIDVkmS8L0w7nO/3D/SbK6uOrHXO/?##
?@@KI+068Uov4N5MnknbflBUH2ymFyOxPp/nrcqVQMSsma5GA60urftHoJxGEX00YFhvLiR?##
?@@XVaoN0SNsV8+SudDE7pnKM4vBLjsKac0SsGAdMNH6aV/Ywx/yCpnh6xRbZA3oH8USUYe?##
?@@2on7XeX0wYiifYpSEMTzGEbtWxZKJbf36u3Ch6CWmD0kfnA+04Pye6TIAhJG2T2H2LLK?##
?@@b/EAblw2PkQgciW3XG4/KU3fa3Akv3Iij1V417cwTpxO7e5/4Ac26kVg7ncAXsghL3Yh?##
?@@bNfHZMWp/wWF51efhynptdwLeqiLWJ/LLe1HmEgbfHpv0YX0/7PqpAdtE9bp8t+Q89dV?##
?@@RYje7iurlz4vsMDKx1FAmHKlzFGSFM8V2ziojrKBgrpxkoryvDR/DZ45bRuSzWsZ/g3Y?##
?@@YoEI8QaPMKlIh2ZthkO2ORYCeKNscwa1UGUa1mGB9dcTIE06eeQlBozITfNRKGlYT7GI?##
?@@R5kEnwDh3Sqll5+ra51jot0W7crjbLmHklWuAdfdlkE0BevO9sotCEpGu4PMGe9ojKgy?##
?@@nHRb9vjkpAvCCNdy0DT1Ml14mfPRp3hRlIxYkMsE0eYY5qV8fakiLsX4wNumZOTxcFBr?##
?@@xdVqHW58OBSstgmOlhWopaiALmpZP9dd1URcz5XQeA/k9GxHFGpvWAbcW854XcG1N/NM?##
?@@FvRdtfLNErkg2pHfFU9Hl3/eNZnVupeA73PX/XEXvAnWvqPHBFxjvgbgCjqwlkb0Tiyd?##
?@@a8+0DNoh/3rblJ4lcOfT8wWuuJRdAboGIrNjbqnfnLx/4WQzMLx2uuMrEvE4JTFNPeVT?##
?@@XE6V34xL3LJzyV+XhMRBdlZqj9vPeZrOF4FSzXyV8hPN81BoPKXRwQerR9RTtgA5vbUF?##
?@@OSH5yhZ3tTlpnhcha1MFFLcjj3KbvvfKPwL8i7mHJflo+5xA+c0A/RhPONaBWBWkPIUv?##
?@@EtEQU61bHNnFMz6NchVSlGFWa7Nnbof/bgXN8VWV4LtB6Jphzilqvz8RG0S9ujCEMWI3?##
?@@szoS59avjDGap5HJyhNGN4X7jyM5nEodcVsBVvPvZHi84t4DbmDiWgo8J9E+qTMNUDhX?##
?@@oJanWN0YPytymRLPJd/fdSgu6gu7K0KPj8TL9vK6W6L+Zh9F2NKLtBIiyAlUM6Ca6MoT?##
?@@uW2F+VWR2XlWb8vEE5CUkgY1VoG6Mk5bVm4toXFS2NXv+qJnePtwG/GL7xbZCEe1AF9p?##
?@@jvxQIWQr/ZifdAb9nSINroTcq9l7/FfZ2m1PCfCcYfKQ+KxFPHMv5rmwEnK6YF3L6ZWZ?##
?@@R5kEnynn9GxxOvu5xCi7xExHGk3F84Eer/9d5TYG7K8V+plrmMxAbYXxKIQpZknfgYRl?##
?@@7CRSlMCvWWNhjh9lu2Qr5IRfAkgtegSofADCSG5qUgeb8ANBlm+KqFoZIyFle6Ly3vQ2?##
?@@Tc13sTU+4eiHNl0sxZn5pW/FeiFEKa4At6tOncd+8Brh0cfoMoJWpzWIrC6ZFt8FHkE2?##
?@@Hjn1eLhrVYnXj9HUgvHKzTKvNbl2Fr3Z/YA9xZ906S+6veCx1Zar7pBso0X6n9RDH+ch?##
?@@C5WL6YHklUNizDNdv/n9HB/f/E+2dxOzZaz7lEICUP1ljl+dCqOgp+pd4WfS9xwZZWL0?##
?@@4L1tbz5r8azRgFfSf0g37JFh9vBLFzCOFeoPfe1ljAvl/suk/q7sMyZzqyskvTk9oeOb?##
?@@ha6kBtYSNb13qiD/K2UAx/zSpsXp9t7CB+jEUPFiZUDaujkHi+Ttuu2E3ilaesRIDIkk?##
?@@PkxYg7QEvRWZ64eZayM/9woGFWaMP9JBz2BbxwHxJnes3vAgSIbkINGmG3vehd7bfwGA?##
?@@C5WL6dhxvlZLehqXA5jNpO3quxcJotwSO+JymUSB7khRHk3c/nWczSoA4vmRc9ns3VJu?##
?@@pLn0ud3lBE1cINj4vmhy/iAhZRfTD2XKGQFhnDokR/aMgxuexqAx6lRQS7JTzkJ9pst0?##
?@@SaoqUJbXrS2aqLLzFhrI1lEDMdmJdC9otqFML3ZmdtZIPhPtfNtxebAObBZQvWb+TbkD?##
?@@kh6cg1sxlFEPoww2knbyRy/HG8igRQNsf/9u1d6O2++znJ1dpW4v5iIWTvG/l0UAD9Dl?##
?@@o7DhYZs2m+l6P+HArgTqZrAP4cal1W/tcGHg5fcspbYfeFKE/Ra3MXRUJRnu/vi21rWr?##
?@@uGVyoS1mwt5YwQw981BIavx/XdFiu/DafXL11/q9g3H3e2YOnpyYPrxliGnXq3secMVN?##
?@@OSH5yn0kwdsvydZE7tI1ShnDTacGnEK73CwIApgFa7DCvA8sLsjKRkePd/VEE1U0IDM8?##
?@@quxmy22t4cKPPItRlztH5v/qSHpbOeldU8hImzEDQlv3sTFXVYZugpQfjTcz294hkhrW?##
?@@T96dYvFcMBHQfclK33+3n6rhflriJGpxIj4G6LQq4K7Dg/hvA+X4yPnwaDnVhVho+IsC?##
?@@jOoqcBOpIlGnhIsWkhU+iI2hXkOf3E/U3ww1DkAbhYBB+hIeOA4HYfGR0IFc9K4qLgtq?##
?@@GQ6WvttwXqRSUVYjs9n/JGIu+FL2xgGjHaGi0WVe51ZDgZao7Z/TmGV3D3GxXyA3IPfB?##
?@@0kRimr7o6xUXQY5y9B8cJLWKSkbjmnI+tIj3sa/+9ICBJVNE6wQ6AibN4S0dhMxvvzE5?##
?@@T96dYsS39mFZOKn0s/CZR865OWLwbqtRzq7ECthLZCluTRP9LAd35zlnNeAaFooGuxIh?##
?@@fGH46sWKJzietWCVB4ot7suEScQbo4XwLwmfwI8fb+88VaekQs9+Pr1eIkW4AZ8m7C2T?##
?@@zRkC4D0LbyPEiR61c0Bu0DuHvdSGdeSbCKS3j2WuFvtvXjeSZnFYnksTxm9Y5K9iHMAa?##
?@@quxmy2x16gfACoizw8drZXLndd6ABGcopHd72PWVISBSJtBsWtLPdGTVf62jpbK8p/10?##
?@@l0n8PBbxxWuEfC6tWnmYTqzBkcVokwaBr3fVk2zBMqvkVIr+fRv4lMS3B8B1JOCib/tU?##
?@@oJanWAoML9sNgQ0tDUnPugnHWPx+om/kqJVEBaGiU+xf+l1kylsi5ui/YOS+N5nxB68P?##
?@@YXn1mLxFiyIbJIgXDK/2O0+QssqLrAzDWfeM7p+PKAqcg6xLVQV8sX0T0W5BnQmG4yNo?##
?@@kh6cgyBtWQarKOoZBIdZSMTFw7PwsfyUe/a/YZXph0ypL7Dylwnw/IiJvcalAH44Evcg?##
?@@cxNMz9zsjygw091YXEzFhEeWX4Jw3gz1l/CXLjVWCrs/dvhEdALqZInjn6WdsiZYCdlz?##
?@@OBjmccq8DAF0Zbrq07aAh0fzzdmn4BpN4REaNbqFi/k2/0DckYgEhqY897uB6PnhwJaT?##
?@@MdxgB6NEp1ChDJf3zDiOrzyARMDle2DP55UVAiCJsIAOvZD717WXc2KYSoElgx+u9smV?##
?@@bujtFfjpP35FbS+/hIy1LrzJdUFfwSInuWF8PcRRZAC+p6tmF6tQTMHUGZaNBEXG3hWP?##
?@@H0EJ0AhIZLv7mnjjiQEzJBglPFt0P6/egAKT3huR0st/9/aB7GBYHP81UMkIVrbAXArR?##
?@@ADe5HYXk4BzNyacyHB+DV961/QenlrlPr0ih5SaZVjgIcIlMJHepCFzgkC5NkMCQWVZZ?##
?@@uW2F+W+NAGZA2eRXtp5IORiNEZMYDX4f6PlQYie7RcK677yMM/W3qk5tC017+sHxj1TU?##
?@@EtEQUxogVtRUzjaI2BUOZAZyjS+C0EPFJg8Qz5Exg46yCL54ByJfdjKVkebsS5hAqdj4?##
?@@+6VxwaIjgiRubzcaB6JGF8sGZAIRk/5AaIiqeY5JdQSuAy61enekJzJ7WreN8HokCKhd?##
?@@GAWDZTkV1Qa9IyznIw5TbQkrfMojLjs8r2ZQyYWOxvAklm0rpCzlcTyn9CWy/G2rzQVi?##
?@@OSH5yv9rtCdVM4RDrm/Fpq86kDk6Hj9cB3Wn3o0FXSFW5egg0/TObUsIy5DCIEBC8Muq?##
?@@EtEQU3QWLXdiUEDFCsB0N/fNsPgsbCJLZ48abNfsIrSrgNAgs7nGmf+/o1xK00Qm/rrU?##
?@@T96dYjxmbxpCxB+TpxouvVv5YDLs6ZfauNoX8ttK70IeoN9BTjBDkhsy9Bo3tGoGrwhy?##
?@@IEocKA4hkfRcJgdy8DVu8d62l86Il7ahtfvOm4QJXNDb2eIazmXdHFzV0Szryg25lx2i?##
?@@CYRlODURmC4W5vLwNTC9aoiJAYV/2ceqOym94yG5I0UZSCFTKsiysqnxLQp8mWbedoBS?##
?@@6hMs45YOWIUMB603xt+fB7sLG7SKe/wGswLt9UkdaBz7pcrkrD1q60h/18lZMkt6sAMr?##
?@@i+IWGKwN8X9qZ4fENvOihtERoZWTOXjnY6N/oIClLHY3IoClg6svI84QhiuqEKUDGhu0?##
?@@pLn0ua5bP7V1+fSt/HMwUVMGcuf25PrNIjlJqH72GgdRUcl0v4jsQW0StrkXZ581RNgw?##
?@@rQag1Grod4hmth1izB8enE2u9/3MPGIzHa9A+7D8rj85EmAhf0iSFRZrYQ4aq5cZ8MGC?##
?@@PkxYg5HweM20aJXxoRVfx8tare2hR254KuXKhpo9h0LWes/r4O9AXJXozWmcpKzs47vj?##
?@@p9Mtwvg8NCr1TDWXySEyDzMAd7uiwK7jUY21UoMHYte1UFJDQlkh+esyizkOO2+8IKlR?##
?@@XE6V3wY2d7mYE1JaCnsZmJ6Naw/hLU9Z+BtH8nPPlGpnDLCh72GGv0JEqs6ab0SRzmxI?##
?@@YXn1mANEJ20PJk7maW4VNKAB+EvPE8O1A1mY60hlztpcJh6U9ysfwbSBonj2uo6xmi9S?##
?@@AkjfzZeSJiAbDa/V10LiYVj5pZ4hgWazzbyffVwSAvfhyWgj2KraS5gBIV1quD8gvSo0?##