* C:\Users\gmant\Desktop\PROJECTS\Celestial Projects\DCDC Buck Controller V2\DCDC Buck Controller V2\Simulation\MIC2103_AC_Transient (Ready).wxsch
.print  ALL
.options PSP_NPT=10001 POP_ITRMAX=50 POP_OUTPUT_CYCLES=5 SNAPSHOT_INTVL=0 NEW_ANALYSIS
+ MIN_AVG_TOPOLOGY_DUR=1a AVG_TOPOLOGY_DUR_MEASUREMENT_WINDOW=128
.tran 1 0
X$C1 16 23 WEBSIM_CAP$1
X$C17 14 0 WEBSIM_CAP$2
X$C2 14 0 WEBSIM_CAP$3
X$CCL 34 0 WEBSIM_CAP$4
X$Cff 36 35 WEBSIM_CAP$5
X$CIN1 18 0 WEBSIM_ECAP1$6
X$CIN2 17 0 WEBSIM_CAP$7
X$Cinj 30 35 WEBSIM_CAP$8
X$COUT1 32 0 WEBSIM_ECAP1$9
X$COUT2 31 0 WEBSIM_ECAP1$10
X$D1 15 16 DIODE_SPICE_V3$11
ILOAD 27 0 SQU V1=0 V2=2.5 FREQ=500 DELAY=1e-05 OFF_UNTIL_DELAY=NO IDLE_IN_POP=YES
V$IPROBE1 14 15 0.0
.PRINT I(V$IPROBE1)
.GRAPH IPROBE1#P axisType="auto" persistence=-1 graphName="INPUT" curveLabel="I_D1"
+ analysis="tran|pop" xLog="auto" yLog="lin"  nowarn=true disabled=false 
V$IPROBE10 12 18 0.0
.PRINT I(V$IPROBE10)
.GRAPH IPROBE10#P axisType="auto" persistence=0 graphName="INPUT" curveLabel="ICIN1"
+ analysis="tran|pop" xLog="auto" yLog="lin"  nowarn=true disabled=false 
V$IPROBE11 26 32 0.0
.PRINT I(V$IPROBE11)
.GRAPH IPROBE11#P axisType="auto" persistence=0 graphName="SWITCHING" curveLabel="ICOUT1"
+ analysis="tran|pop" xLog="auto" yLog="lin"  nowarn=true disabled=false 
V$IPROBE12 12 11 0.0
.PRINT I(V$IPROBE12)
.GRAPH IPROBE12#P axisType="auto" persistence=0 graphName="INPUT" curveLabel="IVIN_IC"
+ analysis="tran|pop" xLog="auto" yLog="lin"  nowarn=true disabled=false 
V$IPROBE2 24 14 0.0
.PRINT I(V$IPROBE2)
.GRAPH IPROBE2#P axisType="auto" persistence=0 graphName="INPUT" curveLabel="IVDD"
+ analysis="tran|pop" xLog="auto" yLog="lin"  nowarn=true disabled=false 
V$IPROBE3 25 26 0.0
.PRINT I(V$IPROBE3)
.GRAPH IPROBE3#P axisType="auto" persistence=0 graphName="SWITCHING" curveLabel="IL1"
+ analysis="tran|pop" xLog="auto" yLog="lin"  nowarn=true disabled=false 
V$IPROBE4 26 31 0.0
.PRINT I(V$IPROBE4)
.GRAPH IPROBE4#P axisType="auto" persistence=0 graphName="SWITCHING" curveLabel="ICOUT2"
+ analysis="tran|pop" xLog="auto" yLog="lin"  nowarn=true disabled=false 
V$IPROBE5 26 27 0.0
.PRINT I(V$IPROBE5)
.GRAPH IPROBE5#P axisType="auto" persistence=0 graphName="OUTPUT" curveLabel="ILOAD"
+ analysis="tran|pop" xLog="auto" yLog="lin"  nowarn=true disabled=false 
V$IPROBE6 12 17 0.0
.PRINT I(V$IPROBE6)
.GRAPH IPROBE6#P axisType="auto" persistence=0 graphName="INPUT" curveLabel="ICIN2"
+ analysis="tran|pop" xLog="auto" yLog="lin"  nowarn=true disabled=false 
V$IPROBE7 12 20 0.0
.PRINT I(V$IPROBE7)
.GRAPH IPROBE7#P axisType="auto" persistence=0 graphName="SWITCHING" curveLabel="IDQ1"
+ analysis="tran|pop" xLog="auto" yLog="lin"  nowarn=true disabled=false 
V$IPROBE8 28 23 0.0
.PRINT I(V$IPROBE8)
.GRAPH IPROBE8#P axisType="auto" persistence=0 graphName="SWITCHING" curveLabel="IDQ2"
+ analysis="tran|pop" xLog="auto" yLog="lin"  nowarn=true disabled=false 
V$IPROBE9 13 12 0.0
.PRINT I(V$IPROBE9)
.GRAPH IPROBE9#P axisType="auto" persistence=1 graphName="INPUT" curveLabel="IVIN"
+ analysis="tran|pop" xLog="auto" yLog="lin"  nowarn=true disabled=false 
X$L1 23 25 WEBSIM_IND1$12
.PRINT V(29)
.GRAPH :29 axisType="auto" persistence=0 graphName="OUTPUT" curveLabel="PG" analysis="tran|pop"
+ xLog="auto" yLog="auto"  nowarn=true disabled=false PROBEREF=Probe1  
.PRINT V(16)
.GRAPH :16 axisType="auto" persistence=0 graphName="SWITCHING" curveLabel="BST" analysis="tran|pop"
+ xLog="auto" yLog="auto"  nowarn=true disabled=false PROBEREF=Probe10  
.PRINT V(33)
.GRAPH :33 axisType="auto" persistence=0 graphName="SWITCHING" curveLabel="DL" analysis="tran|pop"
+ xLog="auto" yLog="auto"  nowarn=true disabled=false PROBEREF=Probe11  
.PRINT V(19)
.GRAPH :19 axisType="auto" persistence=0 graphName="SWITCHING" curveLabel="FREQ" analysis="tran|pop"
+ xLog="auto" yLog="auto"  nowarn=true disabled=false PROBEREF=Probe12  
.PRINT V(26)
.PRINT V(36)
.GRAPH "db(:26/:36)" Curvelabel="Gain" nowarn=true yunit="dB" complete=True analysis="ac"
+ ylog=lin xlog=auto  ydelta=20 persistence=-1 colourname=Probe14_bode_color    axisname=bodemag
+ order=1    userid=Probe14$GAIN. MeasureSpec="Gain\sCrossover\sFrequency\s(dB\sPlot)|0|0|0|0!Gain\sMargin\s(dB\sPlot)|0|0|0|0"
.post_process probe_measure Probe14$GAIN. Gain\sCrossover\sFrequency\s(dB\sPlot)|0|0|0|0!Gain\sMargin\s(dB\sPlot)|0|0|0|0
.GRAPH "ph(:26/:36)" Curvelabel="Phase" nowarn=true yunit="degrees" complete=True
+ analysis="ac" ylog=lin xlog=auto  ydelta=45 persistence=-1 colourname=Probe14_bode_color
+   axistype=grid axisname=bodephase order=0    userid=Probe14$PHASE. MeasureSpec="Phase\sMargin\s(Phase\sPlot)|0|0|0|0"
.post_process probe_measure Probe14$PHASE. Phase\sMargin\s(Phase\sPlot)|0|0|0|0
.PRINT V(13)
.GRAPH :13 axisType="auto" persistence=0 graphName="INPUT" curveLabel="VIN" analysis="tran|pop"
+ xLog="auto" yLog="auto"  nowarn=true disabled=false PROBEREF=Probe2  
.PRINT V(27)
.GRAPH :27 axisType="auto" persistence=0 graphName="OUTPUT" curveLabel="VOUT" analysis="tran|pop"
+ xLog="auto" yLog="auto"  nowarn=true disabled=false PROBEREF=Probe3  
.PRINT V(22)
.GRAPH :22 axisType="auto" persistence=0 graphName="SWITCHING" curveLabel="DH" analysis="tran|pop"
+ xLog="auto" yLog="auto"  nowarn=true disabled=false PROBEREF=Probe4  
.PRINT V(35)
.GRAPH :35 axisType="auto" persistence=0 graphName="OUTPUT" curveLabel="FB" analysis="tran|pop"
+ xLog="auto" yLog="auto"  nowarn=true disabled=false PROBEREF=Probe5  
.PRINT V(21)
.GRAPH :21 axisType="auto" persistence=0 graphName="OUTPUT" curveLabel="EN" analysis="tran|pop"
+ xLog="auto" yLog="auto"  nowarn=true disabled=false PROBEREF=Probe6  
.PRINT V(14)
.GRAPH :14 axisType="auto" persistence=0 graphName="INPUT" curveLabel="PVDD" analysis="tran|pop"
+ xLog="auto" yLog="auto"  nowarn=true disabled=false PROBEREF=Probe7  
.PRINT V(24)
.GRAPH :24 axisType="auto" persistence=0 graphName="INPUT" curveLabel="VDD" analysis="tran|pop"
+ xLog="auto" yLog="auto"  nowarn=true disabled=false PROBEREF=Probe8  
.PRINT V(23)
.GRAPH :23 axisType="auto" persistence=0 graphName="SWITCHING" curveLabel="SW" analysis="tran|pop"
+ xLog="auto" yLog="auto"  nowarn=true disabled=false PROBEREF=Probe9  
X$Q1 20 22 23 PWR_NMOS_SPICE_V3$13
X$Q2 28 33 0 PWR_NMOS_SPICE_V3$14
R1 36 35 10.0k
R19 12 19 174k
R2 35 0 1.91k
R20 19 0 100k
RCL 23 34 1k
REN 21 11 100k
Rinj 23 30 95.3k
RLOAD 27 0 0.625
RPG 14 29 49.9k
X$U1 11 19 21 16 14 22 24 23 29 33 0 0 35 34 MIC2103$15
VAC 36 26 AC 1
X$VIN 13 0 WEBSIM_STEPVS1$16
.subckt WEBSIM_STEPVS1$16  101 109
.NODE_MAP P 101
.NODE_MAP N 109
VS   101 102 PWL 0 0 1e-05 0 2e-05 12
RSRC 102 109 0.001
.ends WEBSIM_STEPVS1$16

?@@--START ENCRYPTION: "MIC2103"
?@@fnIFmL8wxdAW64HNC40igIv9XcLe9z0tlFDs+UQ08shvaFA383YmLdTVsATeFp7b9z1k?##
?@@Z6xOp0rJK8oYEbKF0/jsfSuZXkIuJl8PpZk/UT6ijdZwvetCehayXu9aARLT/xe38Jig?##
?@@RH+slJYf1ekNrEvdYinCxxNSTarmuz7yc9DglVVKvWfKgqD5gJlxTuzLiDOhxgaNogAo?##
?@@8U+yTsSp4DvaatxkldwrPhhwOFPKST7ypvmcmvIm/yvmP8MAru0Ie5RAH+frDT6dkNlt?##
?@@BmorLzjGJLy9t6upaQMg8qUDL4ohQNm3bsXR0Q8v5tpN5WROidPc0LRXvtEg0SAzEwqa?##
?@@C5WL6WM1P7LNvzvYWWVmpEe1zHW8raJyt6G6pM7ViUjovQRrgGpwOSSG4yLx+WYqXj6k?##
?@@PDsy00R28W+SE1uBdeyjFzWb6BBj37s5VL3djwmcNSdlOj6GqRAgkfWzLsZrGbe8oYs6?##
?@@nX1uTzKAgWHgyYSnQlEQXV7I2Sc7wWqD5Rkht2cWies+tdlWXwRrXD3lK0qLarKvtn9p?##
?@@FvRdtWsr7mwxSxvDoViVCVddLOxO77eRWwSzFcmqvrTR1+sUPQaJEQI6daPV7CvddM7G?##
?@@h7/KtrqEMxxRpgZ8OrM17nd790UCjxjZQe/52b9Na4axQ0BE+1rPRPMkONjgm9BZU+8X?##
?@@HCfPxylFXstKGG/pWa6BU20k1sP0VQiAS7yWXzCuQ+RIgk8ReSJ3AFlZgkZW+1rEi/1W?##
?@@xdVqHUuUcLNTCxWrXXCkVFq4KbcQZ/io+Jb9buv5jkqdohAf8VYJnq0f4R+8ZeUbvn57?##
?@@Xl+7j6xrlZfnNLgP5wuHL/9JRf8qghmWMWqleXnazc1Rf54gjcHRA27W76s4SsqO1cta?##
?@@49aneD98K2dvpCVg6Y740cbf/PW8s1WlbeQvPJAhhQarbq5jiTOmJJl5H1Uo4bVmNjwG?##
?@@3JohDnAnIobPQ+a3VdGxtvJtluG9y7awtu19rPyQjLeYrrknwB21p3eSmu84+WIFRUUo?##
?@@IVIvgY16gYlbklnP6WnpflzHs7oip4YQi+1qOSKpL2mqPgsuMbGTDpZrfAoJ5YIlPWzZ?##
?@@GhapFv545aPjSfZWCUDTtEGlW8LrgikshoDePwdAtHMaU9dCzlR546HKLLsCxsaLRAgE?##
?@@S7tRAGZcKNRDs5j9iSPBiKkoht1cadwu7d0x+6QeWXhyErvxyJ6h3IkiVW/T07kLtvcg?##
?@@+Is3uBpl3MtWMUvtCS0vlLyZkhnZHk6cMNiQ2yiPRNvJjRKhNoOcJG7OjywJ1eM3jruM?##
?@@ha6kBvAwNYGi0Zl7DjIJ0DCdG+tMjE6ETAqDcjHeHNvad2tkE6+bKPEeV3f5x9g0D4P9?##
?@@Dq/E8oUfU7p/mr9pO99DKlLv6xaktyb3opHS403SCeN1tpDWrTpaJAPTTdxF59b2GpM/?##
?@@p9Mtwvfzb/4KEZBUMFrB51BYIUH/GQdDtXG615tOJO3dPGZ/yGlozkHtKjr678QyajHk?##
?@@sCDZ3sO0StBLpjppBO6uD6SS1eHmTOMWxuznyMNnJsNEqQFjzUgnGZwx/wJRYWXL+5aN?##
?@@sSnsNmNwuf+7KxKrq7Kcup+JyyT3ooUzO+CtFI8sBAcg7HSK8+R8ChPEoZeBazpxsAYx?##
?@@unaYUQ4qw/rRjk37N1MfS8NT/tpXSnPoF0OvP1PEWqt0C3Ep4XBkTna44QNEPlEBIZDY?##
?@@X2fO6DdX5De9dMe4lwSEs1G/2IpLvNq+rO56rotBINkVd1hMTTGZz8FESpE0zXRSCV/6?##
?@@XE6V33ixcDYIU8/rDE1ccFJEqVHknjr3Nck5j8y3uH6wNSd8sJpzyyXY2NSclTX41Wfh?##
?@@9XH+r7nv37WwWUgO5rh4lDNxArjE8LxbXvUVuN8Af4JTEch0ZywbW+Kbnx4iJWC/MY7c?##
?@@VhojzMleoiy5oZCmgZ6lbPDRcgBf2UrxvOuLKgI5IrvYGmkYK1ILIs8nSXEeNFB2TLXw?##
?@@b/EAbmg5/bvizptjan2x0AYs5jzSYYpKNfldHRzgQuvJzaW19vKgSrOMiqbU0j+wyQZ1?##
?@@gINETPbXJLeqDOkR0pDJHTVUqgS2i/GHfEOI6AesXt8Ebi4RGFXiztzZgjAm/hDb1NR3?##
?@@vZDRWmp8gXQzHXTM9TZnGIQwirC/SflpfzFTQrGme7zkPJOKxj0uY96sXze/UYt6cFOU?##
?@@di2G2AlUeKuvGEjB9NjaBR6BhrcTD86WrBLRXdvTv+m+ENkauwdDSm+SLo7FWCKEBtuV?##
?@@u3+rqnad0V8Zortegq5S3ARmOLlqantEwD7x0AXZiAtGYlYs9Ocywvtbgnrl3Z7+LHIB?##
?@@vIe+AvOYVrT/IM+kGamEYiRM8fDu886vCWMFoKDaJwDV8ZQYuo70HtcaSbAZxwN9rLMh?##
?@@Nf6taLsEud4F/+Tea1aPmxdrt1ggFE1HKmMSTTEJDwtozJNgn6FLJh4IatpQyHvtXbPp?##
?@@MuVzX3BU13IyxUwIYjZiheftE9ZBpzM10/hU18M0FmJX0ZV4fIJNeJRssVh9MSu85jiT?##
?@@F/xwDVw0UxR2qrXjCxMKlbxUP6rILbHcfUyl6MZobytRJeApRaDMkW0cabvLh0WCoruo?##
?@@1FaIS7ALwXyNEESPh5fIw6kaEpEED41TJVBq8IaFoxtJLno/ERl0SCZxVYVKc/eAYt99?##
?@@DaaxmXvP+XNkPAeYcIkOWTnlO+9PQkJ/YY7VfGHHyraVge39zM66wYWnaG7rC/Xm6yo0?##
?@@kh6cg4TaU9GkrDHsxZDen85nbJanoGmjCwbUpVKeIeHKqBrcsjSZ7pAH0Vjj5/fallQm?##
?@@F/xwDW599K39Hny5NwDFseZK46qbD7sVdmg0bkaBiWHav64eyjwW+yT5RbKRqL1x9A+D?##
?@@rP6MfGNDplv4Jm7YmfP4s+fO4Wqx6Liwve3ARtheKwUtEnFpD4oQ9k2hzPaM8SKTZuW5?##
?@@HTDiH+8IJL4L5SGo3GZj3huyUT5NePbSajN2Ud1wG5yV/Y0ZtL1ELZvCeptuN+xBD8qJ?##
?@@itkDwCQd2O39wMVywF0vVZZmxB+tCx+noKzWd8n2KD4gXtkZpfBEUglJ4X/Y63H8UocD?##
?@@m2tInud/D/TZZc4miGl9uhks9/v+kxouO82iEh9qAKa24cF68d/uSUn/vvG0UwwxFz99?##
?@@tEIlP1aXVuO27Mb1c2NiSrwHq5EBiPq12HIoiVoIo6KW9Vcoumkp2sXye32PRNsSJKBz?##
?@@KZfHRGPm4WqQiorUJZujcZP5A7TKhJj5SrGKUebns9O25uUky5Ah6vfSNY76HEVmJLzU?##
?@@noWBp6Lt3GJKRmi0RA0odEtGRdpCx+pwHWdRGLhSOjaProAhMBap71dos46O2QGASI19?##
?@@49aneAk3lwFREOMxphJMW8Vkknm2SbhwJ0cq20t92tijCiMDyQaf0Rc5WrxR3grguKeL?##
?@@5N+60cQD6lpGYE4EegqZ6k3EG08eXkt751YgAm2iPdYSIjt6UCtxpLV/I1DlVyK6GRDL?##
?@@eUe/4Y4IDhVUOxe2k34Bzve0gnqCcSXSOdQvMpnXa4gTbhKs3g/W9AZXbrh+5m1IMss1?##
?@@bujtFfEvi8Ab/YfPAHwfKUW5vt9TKMZpJoz4gashfrih4az7HrzSzOGLXKF/Fg+Up53c?##
?@@f3sx8wHx0hg7XSJdNTi//cwSHIIGg/mpxoZXUw1Rh4+IZeLDvsu/AyrcQll2IGKkpL5d?##
?@@uGVyoVrp7sVJckEp7vU0HMnfVtBHNt3108bUGOPVkJ3XK+gQYpBWZD/+tcloMRJyXL2j?##
?@@GQ6WvoCXwxnF0uuqiJPr5R/4bTUUV3TtCwiBYNcezYw1RocLY+ZV2n98R9k3iwpokyC7?##
?@@vpjksx9+jeuELyLOw4zbsU1GB2hAMiHnBX8RoTjclSBJb0pxjdWtg4chHmx/XAput+LN?##
?@@H0EJ0L344IuxORnWWbpLOvrTbcBlJWGUazwYQgxMam/7ZrJ8V3ORJoMoX/E8CctNYRtN?##
?@@1FaIS8UTFbxriGTvSomuODZFqgDaFb+aKmBvqDb7MMoDU9sOvtNPFgjnxLZlNEx5uq/I?##
?@@yfe2f7rLQ6ejMVlLRzBjLQXIGR1unfhE23fIvPa/doaAvgITQ0rSwa0VfICCucSvTyXp?##
?@@cgs5dyndi193tQxoyTrXupMYN8qX+Xn0JQEngWP90xVTFUV4BJcO/1hy2ODe3EyUKqG2?##
?@@m2tInvBwu3mnjQszzDI1v3nYtgMv7T8ZA6MahiVa2sFbYBvfx0I1K5LM/WhtUo3xk7rR?##
?@@ZJIuolHrdfU4QMzennxMKPTkeJvk2Q84ZAmlAaCrwvFqfqf5ImdiMha/evC3VBRUIU4z?##
?@@2YHoBRTKls6rhBOlAAjbnfZcajJI7Rmji04wXxBhD3trZU1eQ4NvT5jWogGFN91T5e6c?##
?@@+pxeaRA4M/38dsXaY8SPRBY4ivjk6B/RwW78WETf5vQ4MjiDo3bNENb343l0NgSElXSd?##
?@@Gx+8b2jxsCgyhKgO67QuO2LxtWzS7BNuTkcbR4IpexhJhb7mjOLW4vjOY8HWEUcL12pv?##
?@@fGH46g9mBlO/hJ7P+8d11wTM3KVxrhHKJni258zI63i3OTHghuc6qdDhUv8knJ4TsLbP?##
?@@tUs4l8EXf58sr+VA2/5TzEkfXSETjqQ7AiOdgiPhpkybk0p92uyfwhsam99KuwWiHuNZ?##
?@@sjH/jq03FZd2rMBUR4zRirjyuokLkXt1ZWbwVxKmhfWZPqtibbVMhT6Tlcm+ke3tN9Yz?##
?@@H0EJ0E27sVMEeWYwsu0oV06mUjHzSL8FHDe1VlAbB9s2s3FF6plJWGOyzLnfLKkXzAwu?##
?@@9GnrV4/u6FOIjmbI+A4bclMcKt+trlBUS9IG2zy0bO48VZn7b7tfWsHUCrnjDBja3qB1?##
?@@idHwZ6DWgSWVaDoHQWDbYY2EMK9hTO+zgGZzsC2r8Ii4xnUd0oTYo9YLm1KgdLE6yx/B?##
?@@6hMs42goKOZiNrcgAOpax0jYTBRLwpfxOLz3BMige5cG1SEffjSb5Ds9kfalE4UX7Utz?##
?@@e1jlkroXRqesfT+J2nazE7ZyxVKfyz4tBqy93vA9MMclKWsQyNNqF/8gB+LAfX/AOyTW?##
?@@kA120lKJLqwU4uJTzmQ4H6DlF/2ic7UB/IYZF1qd/pTQIykIwl8wovdeALqHgni8F+lx?##
?@@BWIY1hCtqljdzhhYAKz4fZ2Yy8LvP5kHf3n18OKLPEF0gpdr6Lt/mGTKOZTmsRvsTdko?##
?@@1meu/LUv4yKDmZFI2vMPcYPOCvLkEDCFg+IpzEk6HZq9qUR+OH2FTUvhXci+EORt6+zT?##
?@@J4ahk7ui72nMP1wGWQnloRDUgQI4XbbaHuD3k6gK9/XvVkxWVGFGY6iipvDqbBGTIqoG?##
?@@NPaZELJa8GkZ11p1PS7wtTPrwjfqNY0+o56N2j3XELqEhbuHalJMp023R6pndPpNXpTH?##
?@@ZZtB+haoDfxV4bo28FO7SqwU0okVH9JZGcsvMZ3baANHnLzTjjox1uArRb4tMbQIWwua?##
?@@2on7XYrgdMA7p5U/D3POgjQYRINeozP8vi1+OZrRi76QU5Bw17n2cWMQm+Hr4wANRKxK?##
?@@OzIfehZ0KPZAtMnCOc2g24pvuq10q5noUUQVRKb67hNIPlE/SlPh6fhbXiz7LAtMorle?##
?@@UOawuudo+PYhRuMPevIGA7xoZB6XVSM9aiq0SfTLN2DcOUoObc52eWUjLb6GoKc9CSpb?##
?@@CYRlOEwuqWQyFaPH7qSb5+gYeW71F6pqF5wqzmbd77P3WPk3vZCJgNsojTCbyzVvh5Fv?##
?@@psoaavnqyl1cXkfu5YRX1eM15nIKQxsRpEZ5TFqJa4RqVpvcYoxydm9NHluy7XgZwZZq?##
?@@v6H3CyH6sOPqJDQ/VU/zWFnMH+1vQaM6rJjMNz+RPpHVwR/kvA1g6YPy9q7EugF136KJ?##
?@@3JohDqYE82c4SfJPvENsN8JbHrW9kHbFIpW75to4cCrXlmKx2EZXdeXna0t0nofJeY72?##
?@@1V6bowMGGRK28Y1IDmvF+2x6EMZHFigUAekPB6owGD5xm1vL8eBAvh9Nej4rxbnfWwaU?##
?@@di2G2NXn5zuDHzP50/tjhFDMPEAQtDi6AeWt5L/0vKp1LXqsSbKrwmlDSIRdgr6SEK/e?##
?@@37RaF+/AAMZjzOgSscY7C07ZwYS2po/DnwsPkK80DHVm7SP/zf+6VQxJmhpYz3+O/Mqp?##
?@@VAn8HFKiVvcNCs0GCz5/PwOKBoQU9MSnpkcv56zFTp9FU1bkgmFvkUOy8jKWSqPW5mOG?##
?@@AT/Mdb/dtVtB+bCsDOH4BKjUC1YjZmhBmFBpj/Or6qhF39eSGwn34sNhp21LfM2bDf0t?##
?@@cgs5d6ID1wj+ixEMeFZuTqmsR+WA5+TJQmo1EBVteni41UuxJt2W54E4rS8C7vr4AKCi?##
?@@5/nz2ppoWMIvBQDX+dkcap2DKx2/0EAisgXKrszAHm49yj4rxPx3NntPRKO+AzWUiAxE?##
?@@wKoKZNM22us3B3KvS6A/duT8Ifz6PMUq9Bt2Wbr93n4bgmAZqI/5zgAT/6564Q/NHaoL?##
?@@vZDRWnJ4EHmxEzh76Wm54QEfiJ16ojV7cNc8os/ljhyXQZzs1c+elVRM9fiR0E3hFgy0?##
?@@tlRL8H8C3b5ji/GqbhnpYXJDMqR1cPi8fYTxEfm3Em1hAU95QE0TG+5ZjFCpRoKv1ODF?##
?@@25IOtTfMCAQutfhMDKp9HRZH4qi5VLz/KhdSLurQymuUpxMUOIhTo0CH3iOt24SIEkCf?##
?@@6AEGMoPeEBFVLEkfs/kURaGlD+sjqWbewTJ+Pq4X+75ks9vBNsfHaPJYFDWTVQStf1vK?##
?@@ha6kBmIXxQzfurGg37L5LORp7NhtX7uLDvfw5S2A2C1Jgfms97YYhIFKMZUvlxhBPHZf?##
?@@elDSOgSgUCKCsZSHVNB49danLYzpC4i8NdHdkSkwSW6fTf9GOiRLZE3ehwd05GRNlW5M?##
?@@t1xeSFuvAUpN0EZRtL7YXsHXGNExJc4vij2+kINi61kEK66SNgVzIbDmsspxW42Z74Ds?##
?@@fGH46uHTfuiZTxO77ZCOLBvd/44LbiVRrjHm0vAYq1R4HB1BSE1UlxSfBSaPdXbKjra1?##
?@@xdVqHXpSLPFwgYHanzUGxLDKZGbtlsSFhSw5p6ZJoiJmAT2s9660EWzlRMY5UmNGmggP?##
?@@tlRL8MGYpJf/JG4hQlGPgLO122YnsYWUAah3KqGiXpvu+ofXbBrDZz+fEqQ+T9ldQAdJ?##
?@@w8NEbTylPQRx0zS0E86tsSAeL1wbJ0+Bzw6RdMhrnzfcCKO6v6I35XyjfH00Dne21GzY?##
?@@HCfPx5OwHDN1LMAjDtwXtfB9d4hquAOwbyvHiQq5PT/wCWpsN8Mk4duuMUH2IXMteqdb?##
?@@4cWAyIyClU1FrHZSD3aUg+ruaFWhasi6JZpu726Gj4nMaidqwdAFvtP+Nr7ggXkXwQdq?##
?@@unaYUdwMZHma8Pb8WcU1gb4ogw4NmT7sU/DPz9u1mRDVYZVwBOfTHgU0+EBEA0reGDpx?##
?@@C5WL6SJ56+nUMp1R4LbS+DY3mkkceZTtny/vMGxBF03uZY4Cn78QHPV9cn6NGTiSUG9k?##
?@@KI+066ZBHUeKM9xmp3JMem4sbNN+mjbZXyA3kLxHTu77TjJBU71dzVJtFqA+4+WyPhiW?##
?@@Ue/DElpBAiH1GeM2cvFo0Y8465rmP+45cHqEJKSzqEb8c73286DIl6FurWtZT5sn4lYY?##
?@@unaYUYwTtoWjBoROkS4oKt3YvSOcealZntITgcE2mFFIxVXBMOTF9uOTNokuNU22oJ9H?##
?@@T96dYjnbR9snCkuG5tex5jZ9xC3A9cCOf+KjjgQY5tNY6yHqIHXmFsYSGmF3zmv9+GfO?##
?@@hKaRrUZgCE9EtSpaEyA8rQVq+otUo+Emm2YIfOjjt9wdaHCZ8yi0aAkB1b5CS88YEoXZ?##
?@@idHwZ0vKAHD7gqOL8R57eWKAhL5A96ivj2e2e7TZccNeIE2jYACsthEvlNGSlRPRd3OY?##
?@@GhapFv0eF4YXQNcHR53wYOLbgYV/emFaEwidTk8cpQabwMFtO4SmpbRUAt4Z8zRoRjfV?##
?@@37RaFwQqyExlDRKeEeIbZwjGvjONbxxmwBHNnKFf/t/ryx/1jCnYcrW2MLCAYzgBDPV3?##
?@@oJanWJLmTL0P8GmRCqRT2NCwfHGerU84RX9FB5oDoZcqCPShYDwK674ztyP2kuKlCyVX?##
?@@sSnsNjRCFKU0lCBPUzi0D/Q3AnzLGjJEizg92MFmy8InUyzR9tP5gLSZO4HCTMJ6hpGO?##
?@@itkDwBAfGgGLspK9cqw50AQ+oxnFjB/PX2N81J0HDoSQk9UQYd50zIHlEVEPm25n1L3K?##
?@@i+IWGGePQt7ayOrEgooccyM9LtJAZklUcxEcK1T0uZDAv7aASBqo4X+6A1DQMbidtjYB?##
?@@2HjVrPhw5N9FB7kDTNVZDGz0m/7cBITyBEGRtlOb2yZCZwFgStTGy8NGtYbanUOFa7Vd?##
?@@SaoqUGJkYsvISl0dsVWGrpLNyWmI5m2UNNEWyYLG0UoJojnyaJphJJmE++qSaOTiOaDb?##
?@@quxmy0IEZfX3EG2tZfff+JbQHZuQwJb+5HEGqUDRHzWfxucay8qiaCv2r1FNG0uuHk7U?##
?@@Gx+8b+GbYheLyOqH5JGKrcDZru8HQNRCEdU/bhVWL4D23tNvNXMPZl9Brmi2PJ+a04FC?##
?@@RH/LlsmjBcLRiNyyccX8ETIVTVh1EHN1MS+EUt05B3vokUiKtX8dz2nutO/L7ZwDG5Ma?##
?@@idHwZ3QdZF40aZNvjBbUayE0TDYNvpCDX/snlSyNmIj+QddF0GN48ZovqDTTMlJCdc4R?##
?@@PkxYg3VNtiXYdqdRPKVG2Wm9TKOqw8QDRvLx2yRVz2GEmXAsj50H63DeW/u0S2FQyvYa?##
?@@P1Rs3PJ44YZZW5CB+N0XyOzoQaCkPgyZGpyynFekyVN+x4jPPvtbtblVW0nvl4kxgWQb?##
?@@iMjdD1GZxYq+8gpqYCXTw5KZ5D31uINjYGMqJOJ2kyQGivGrFaIuCDWNTGOe7JLzGasW?##
?@@oZ+6sCiCsWGAiUz/p5dN/kmJOVKpO8Kw5iXIDB8TNC4zEcEDNyN44QnFgCVX2FGyS+Tf?##
?@@YoEI8YU6BJ3RIZmFuPJ0nW37fbqvG1XwMLl305SjkwU9ZUJRBZE+YtO0JTgFjj/hNC+X?##
?@@M+2Gt9bDyw3iZ+AdTGu8l24lhrkeK1GkXBXrC9es8s75zNyK/zNUSyj61eZ1p9pUkZyU?##
?@@NPaZEB5k2snwDvia3giQy0pQ5l609Sq6pfMs/dOwbxmHfFjiumU1noPA6V6yoEdavphd?##
?@@cQImHr3FCp8NI2JBFyUy6ign0yX25QoAI65w5g0SHUDlrSJT98e1Agv7rtSO2BCim5LZ?##
?@@6hMs404+Y+syPpKxZPbHyE/VPd/5QHPidsRyVewRip9o5Q13WtzhOXnXHDGokz3Mk67J?##
?@@VyM2JVmisbS7+eMQX4/sPS2zi4IyUqXX9IPAFM2IR5Yj4ocK81KMu6agXL3S1mLZbQhr?##
?@@lC/CM0fCHYyn/r8jCtQtOg57oHP4mKFveYmzSLzw0sqV8FVrlIuech3+ugSGmf87wr9x?##
?@@nX1uT44J8/wHAIgpYFrScBFpHVAs4GfnTKjV1kEwFK7mhgqyolX0Iot7Oi55cT7DE7Mz?##
?@@lkDo5PWOTznbw+noZdnX/GEwGmASbgiCX4QA2F9VeAAU/TWDzBbeFp57696bnLkgbxUI?##
?@@VyM2JeiJ6yI0WuKxHYDfS1u9Zg5eAbOIfjnkzniPwM9Z4pE/o+TAQ8PsqsATP/o8SJO5?##
?@@SKIX93YIquTnTPXsNBF6Hw+ZxDIa4D7CVFx7mLMuLLC6Kplwaei3kFoaVRTPqr3fij72?##
?@@Ue/DElXKxM/Ao1M5rBZQLjTV/sINroFj4l4k3nVzBEAdKB5Kh5//CD9lR0FIH9/Pxegq?##
?@@tlRL8Bjw7NOL2NIjUfSrjBnuBX7x1Md1RfUhjLjRYsFON5ZRZ7/ttOESNuyeWXuClAZ/?##
?@@25IOtb/ex77l6sK3mzknxOKTrRAbDEtYO6hryQL01Q3lwcnkDf5GfobrpzwArLzAv+Av?##
?@@FOM3BIXYr5bVUJegAsvsLo2tloIFO0QR8j0r+9RFpCzr63CN8U9fs/51w/BKYDIg2y4V?##
?@@PUNFK/Zw7ojIjrxGN0DnRNNsM0B2mheyZB2lpsoJYOYglzLoM9gTjUtUpXJ6jpag2Uim?##
?@@UvjWa7bAwChEtM1dfiw7CBcPfAor8HkbzSCwyMTzWqW1HJ+3FkXjvHaepL3A/PITmZgU?##
?@@P1Rs3DtXiGNbqcTK7Jn2EEiHgEh8CTkL2tZ2cgbIAkLT+MAUufNKRjIkJ2rdWXU6gGan?##
?@@FOM3BL6pSgYTx157MCwOAPE/MfL3vqYAXAJdjmgaE6WAT3OCuhHoNJBDFHJdXkDHVVmI?##
?@@nX1uTzveFQ+wQT855ktxtFJzuy6rwdjQHbE6J0FoCH9ubRyXa8LxWWDmStdRPFXB993H?##
?@@Xl+7jy+hIGe3xITPJ3KuaOiTFADblBnj5jagka7JYbqs/06W3bFdyLwPWCbHKPF0qO31?##
?@@/8e9I3D3a4iYzLz9xOwtRpEDRS+KFOFnYAMX2NZ68aQyHJRikFJ3VP0tnUUd6PMsGvWe?##
?@@gINETHkfGPa0AbjsqpWTjZv7gzudvD2Y7OoNS7a3HDLyGvHzkyNancOMHXstr9+AUk2a?##
?@@Nf6taPzOtEOWiDdiRqv3LMDfONlmGPLqbv1FV0T0R5XTqDzNmF92BElSV26R/ha1aRUH?##
?@@wrswFG1u1Zv5Mnj8ebrSGKFhB2OBXs1G3mXk8rSr6m9dl8KjM6r6uZuNtyLIk3e5bqhu?##
?@@W0WChl1eVwl8AOdXMolMqakIOTocbADBZEGCJkTKpTtEE0TQiOKkTLGo9PNKXWbv01w3?##
?@@7CRSlDmqDpOIuo6UKzLTs5os/Pj+3PY7BwcVIgl1fOLSCzlDEzLJWtKKX7LJzhqtQWK3?##
?@@6QoZiwpjcWTzLaBs9y1vdYHyGK3N0ByyxV1mwI1XbB0G48X9uGvA+pBb9rDqcY8lod8P?##
?@@Hjn1eBiF2vvwlRPHAujhZl7Pyi8NARWqorLrDf0ntZ+GBv20CoCrsDByT3zFZQa8Kzg9?##
?@@q/V5JAJkhISyfE8WUpRBlELfXiG7Vea7t3dwifYUzD2V00Dqi3OWJ5iMF5mP8Acbe2xX?##
?@@OBjmcV8MhkHcewz24KiLjIMFvMItMVsP5YWAwzJ1MQucLeeOfuMIZBwMI3tIK1yBZbSR?##
?@@KZfHRB0gbGTsc8wLCE3Rb5ne3foKLTkcs5JNc+FvZRtZ+ZEALusIi0BNzpfMeOgim3FZ?##
?@@0kRimshApCoJmnu2HxnoudssCitN7HDotL16lzTWIYAPlTbZDOJEwDapEG8gLPTe4ktZ?##
?@@cxNMz7lW//WDWkAoRJmY8d6oF+WZp3E8JbEdOpgOD9IYD1vhaFNHt7ucak0FpvQ7v1pR?##
?@@QF1/NKN+WCac42QZx5s+peN/YZKc03TZAQFEsXTSCJuf4Uo2BnJmz6p0Zd3KIkYSQB97?##
?@@7Sxl7HxWkBvgB089/jo3XiZHY3li/eNvSFDl+ACdOZt7Iz1nWVtXHDQEVlkx6PHAVez9?##
?@@wrswFDZT4cm+xQEW0RmNbUbmAg9krEAU04Jdleo9qi1jfJISF5sHY/tR4fdQkKe001w0?##
?@@UwDpw9sSYUa5Hh4kw2BABbBOdlNCfoLhtYeHxXOHWJgWzFIADnqaApkOOUJblXZHdn06?##
?@@wKoKZIWJu3b3oLrP+K0Zzu0rk0wEetsoayoqP768bDdsejSag6J53zM7HqmEQLS0+LJ5?##
?@@Tc13scYYQUQmKV0KXqqMRHZZN7GKMEXDlQ8NiuJDawizTwGlyDkGCqeDr/Fem/qfBjp7?##
?@@wrswFJp2LrM/vVx6CKGIrQNn1kDHqKi3ZaSJ2EoLHf71F1slO84EZGs2ZrvOdtN8BvAe?##
?@@D7jXSst173e1KMOiz8xd59Ub5lFaYCuFjayqpHVXsnOUwDo9eEO7cDEEQsOdNjtRX0zb?##
?@@2HjVrLm6zUK2sVZf+AKgA8CWUKkv04bdu86/H59BsgvXrA74em1kcBlxvMnsucTnpBd+?##
?@@Ue/DEiGpao369CJamJyydxbwgtWfhljcE6exIxUsNB5iAwLwtw+mSDSXcNCS/yOikXcO?##
?@@ZqRUUmC/XevhdoGfylAkmIBZJEWeo4JN5thEd/M/3SzfkbSnUgYr1JwtE6Fh1Y4OwkqH?##
?@@i+IWGGbE3wlIFWPvUwUuqQd9A8ivb778fTOAHQokzMsQGQbM8KYA8eXTQOrH9j03py5d?##
?@@jOoqcBfSckGxngCIHR/PZ/L668BnSwFtlll1jzMiLyBpmzsB1T3i7tlMUpFKI0AUJewY?##
?@@idHwZ2rz233PG0n3eRqBUmgmwu/8+gboz5z9GKdRiB1xwLccRXO7LjR8cOXk4tW2bxLr?##
?@@jvxQIQIFeImOHf+B1rXXHtFfdbxhD3j2HSAqO4Z5XggFKMR8O3g4I29Yql94LsQkNATa?##
?@@NxDTGZpxZPqpD8nrxptswWjCDYc79I78XDQp/GaDWCX9qWJsD1BIyEZiCEAkc90NbDt5?##
?@@oJanWNXzzK0XvQWlsNHb5EXvCrjWzgZLHvsXtgAj3BRtjld39L0suHN1XB/13NAHWid1?##
?@@QWaSjdOjQbue0TSBCHneEaQ2puviiEG02UOlJVOvi/+nceeoE5ge3UrVZkPu1LOMycHB?##
?@@elDSOqz8inmr6TtqG5WSbI/Zm5RcnDCKzOMIVp0TkTylWmB6byJ/7GZmcpfZY8n4OT/F?##
?@@b/EAbm8AspKSP60IjiaYuOtLsWvijXG8C+EMj8DTFs7rG2SapAoTD8iS9RbSQjK/rqUI?##
?@@lC/CM0PFgRYcnN7pxoUPrAXkUT4WZ5dXvLVcelJ3jOKiz2kVaHUqAf63IWy4lljUoPUl?##
?@@GQ6WvlkpMKmBdAPTdz8oLVh9eC18aXIeaik9Dz1nLNkkREp4JgX2uHyPNVp7G4PrLucT?##
?@@unaYUYbOligBzIUNZiQBHWD93PDvYFHKp9FLmaxC122rXZECna+Yo8vUzWg4zE78USFH?##
?@@g51+VX2B/0mHb3RcDWq1OSjjFWTP78Bj21+NkUco3r4l/a7PtvbwYNNWTUXgtGuxvIH4?##
?@@2HjVrFgFTtPfqQefsA2qZ0vD6rtXFzQFsCgMoZcdRf2aQIltwOWgkx++sopXLD2VhBWQ?##
?@@DaaxmRFuTJLHxz7lckvRl59F/bypNNsXWaPYI42EImq6an64+b8lOaTMj2HGtcM2Sdv7?##
?@@/r+qyvOPiHMv2vDpNnaCGptyGwzILNv1VN6Foh8C5KgtFFXTorRRq4MIEd3OMp6awAAs?##
?@@Q3e4PR4LCZ7OCD5Z7s57srT1kVlYvpS8lpL26r6DksG7G0+2D+hG0U1PKRDTbAIi2Xff?##
?@@LLEBTdG2BbTlu4W5H0D+bmmzfKysdMGQAu7rvJCmvcJxeC16p09q3+hDjuBkpjsUJfHe?##
?@@ZZtB+l6yDDrqnErVOkj28B6VbTeMgtCUff6X9WTscWKT0oGrIYjHDGD1vr0PPj8GFDJn?##
?@@Hjn1eEuRcFQbNYyIM8aTaSWogJrsPdN+XvsuqhnBdcLupj36+9YDDiukAph+PId+TTCe?##
?@@25IOteqUNJGjiWJ1EApT0hTUAjaNvG4JPwqm7fXhmYiH2ULHf4XqaU88SQdHrnoirY2o?##
?@@4L1tb87tdidTYtoz0E0bHl3Svk343flhRidi1q+lI1zhlC7Bd5Gungv7EYWE9cWX/p9V?##
?@@kRWJKr218M/qOTDuuGgJ3vgNUl4ESohaDkipNs5opgaCYBlQ6uWaUXs9rbQGqUd5eU/P?##
?@@Qm6l5Sv0bOemjp6U5hvjSBsGHgwKb79IFlr7PBaG//jA4fJoqs8q5a2mcU9HOeqJ6HJo?##
?@@l0n8PNT6svISSHVJT0hq+mrT5W6vuIgLbcgOmq0UK+y3DNblMybw3uhjquH+7QowMkQi?##
?@@YHDiQLvzR5G10/VV6CfOWfltrLF/aPQSi82WaQ74laKcrQbTTXey/2tbg4e5rcTV1FVf?##
?@@7Sxl7IRW6RlXBTMIEj2fDTOuqs2s3tSFQEbOR8iVU/22caPtzMktPNc1LkZ/yRtEI4XT?##
?@@TtWKCeMUa2fxNVTp50UPpvcq0cust6rOOtYJ7aULF7/xHJTFtONgk1yL5stRl1rvptbZ?##
?@@szoS59t9Ar51W+a/vOXYueF2R6gocPm/ESZsACFCcSdSrazugNTVEuXwADa547v+DwAd?##
?@@2HjVrFsZa1bZioJ01BMm3EzSqxNdSanDbdhEbMLqtt2npiVi7cc6XqxbFH1BRHMka+Rp?##
?@@LboUpXbbm17x85v1FL3b05ore+NL4OLCxxlKoJdb4++VcgUHqfOBVxnSoxCMPfKNJWBY?##
?@@TtWKCU9vUBgNu9q344CUnv2w3ukDvXxGGbt0HghQZL3dQjiYk+CDWayJKuDkroQUCH/W?##
?@@82DY/tEKNpxHMSmEztL7H4wjZkMfEGQgtOLkXZtOKi0MAWgp3WosFRnn2KklNibrAaUy?##
?@@+Is3uIHix+rf5vZWT2M+iCpeltmbJ4kxAU6jAmPYQlIU1g+LnFhkfNahWUEfOy/phP1s?##
?@@WTRc1fOV4QoQOzILaqURuDCMx16ErGNCCLEPi2Lv4vFRTKKi1C/x2PdJBYxwqEaFG/d3?##
?@@noWBp0/YTjqBP/uiYyXHXrcmqQ+nIVuWoAAogiCDFyMHHxBvC3kf7lMdx6X5reJGtLtI?##
?@@OzIfenehBgdJ9qD7SbshRELtTUd0PXJzLelxaEtojkPTazQuqKWljrwYO/sWb1Z1EdSb?##
?@@/K2EGm/nIEEWBkJZDNOQ6Uvpcv0TXOZqlreWXxCGrfVyaI8z5CposbPDuTPMS0TDtWB5?##
?@@AT/MdQXmtvHvd2lFx5AU1zwktmyN3mYkmOrqvx/xreICR21p0OMAQUrBo5SqdfTArE0y?##
?@@VhojzHDAsrAfV0QBQ37KrBVTWls5ihuGWAOK/Q2y4d2SykaMM3CZYPL8pxC0zQ61QvnA?##
?@@+6VxwfZmC4xDptqza9Q/sHK3eyn8eohvFI6R/NTepMAcah/xRvi8IsXN52+jx1KFUcgd?##
?@@RH/LlivfF9VixqyqgheHcUk+uCFcR/4G4jZjtAEQLaX7FSPAQBfoS8c7CO73JtyAxH/O?##
?@@cQImHmRQBmhw0e7WV7qLFtoviMdzBskxFdDNBQdXw5l8+sr6lAGkYF+X8APeZLY2r4mQ?##
?@@GhapFou9k36uyG38E7VhoMjcWXoPcw734whJV6+0XZNWphBKjtYbgNF+CpAwwsxg7+0D?##
?@@K6ju9DljPZf0hF2Aj/6PvLhxLlIx5so/gGmagzyQTMn5bfuPDm2ZPLWc+6HDiAzMMlXk?##
?@@GAWDZTnd9Q3SVdpuOCUqlrCCR7Beb4Kftl9LRNpisRXTHJ0lhzFpApGanv3X2wtz2ved?##
?@@SaoqUP7HO9/6pmBn02VxNR0V6c4sTPWOxP/il1N4vm5nJMW7wKIng+JAd//RPcTl6qlz?##
?@@Qm6l5RMSFQtM9msVRoEP9INKH5pj44nvqQ2UYDMTgG/6gdZMfyGs202SDcTwHkOlG6JE?##
?@@R5kEn+OrJV0DE3GgDZERI7n/p23vbIKXBle/h+e5xCFHuvC12QzVSDpp0mGbbykj6RVi?##
?@@hKaRrX8zJT544dKU+EcHbhMmL3n558JTWCdtWcewdGv2d3izCG3sE+ns3FX6/I1+P9yF?##
?@@ha6kBgO+wTO09VnWWGQtvvTY0vJRIasvehw9gPXKhFSup4ZTDvLwm9xjFQaFKJTQMbRH?##
?@@7jV5RPAUMQPbDsNJ0uN9WH86Of3VMazQcoCL3prfLyDMgOY9rccnDetyZ4F+5vRyKyc3?##
?@@VyM2JU7zPMbdc96pAAgMkqRwVJdUFSE7ihlX7d388alW3dvrK90WDAtZjy/ZLMj8FnPe?##
?@@5N+60e6np0TIrfFcvj4bosfbJKjPw8TmMR8NnZdR3aQuBAw3eLi6blQq/TOx7wklgwVX?##
?@@0TxPQnQUaSGli7vz0/6ShqvwmAhD8jvydujKnCxU57E0yLV2p5Q2QhmW0M5kKkoCp3Ci?##
?@@hre3Xmi4yF0DB0g4zIuNSo4PMoUccOFC+VYR1wvnqqibJyHOjkVuXRmLfqnkF6H3354P?##
?@@I2RVMQlrItNlzZmx+G92r40p1LYiwLnplwXY96HxgH1rl+OukC3GzNuaXcxONGd9vnJq?##
?@@tEIlP9TrmmYuY8TA9ajR02blEu7EQ63ydiG+Q/0aJN9RkiUTded46I2xEjXs7GBiQcdV?##
?@@OSH5yslwKUlOjhmNZeSLf8x8jwrHgeDuEkBnGckkoWeOO8zpNmO1qUHfFi09TFG1K+hm?##
?@@BmorLxKvIWxzn6HN4uXfi7OAOwBIJZZErr4LJ5jwd542Joytr46ZH+kpqsb9nIzZgrte?##
?@@v6H3C14UcKkfcoRa6TKOU7pzrC5tMdRLAzsPVXFE3MHEjB4ycHR3fmZl0MrJixQdv5Vv?##
?@@NPaZEM+7/cqYOhrSOMRTOjNZE6GdErr+kMUwXM9wRNCws6DZfc6NFqf6T0AH6vUtplsE?##
?@@tUs4l+AWz9gmk4AqlaSZrLruE/zZSzqxDgcss6PhAGI58V1bkLY0PwFns7QKPvJ/PMH2?##
?@@tlRL8HLPWbFsqi2MP8ziU9KWMLcRUihDII4AUm/cH12csDXYq8WG0XbybPNWse8bT3YZ?##
?@@n46U/0gkp5kYkryVmP5DQ/SGqy8qNYFgCvbBoDFYkopRungQ6yEW+aOYMg6fvmJ2hfoU?##
?@@WCtJfRpQ0/JJM6KrQ5ajtXiLNb3H4kHWHNXV4UiVd6fHWUSO4xvpe/2D8TD91YpAvJ93?##
?@@wbIdvLVESsdEEKF99SqLoj6JW7Lr4p28WAbOfvevltRnAsiAXdS4MDjgmVjbKJC2KRNS?##
?@@oqjOCAG0iO52QwjU/fUZaE0qNAwvy0srSa8PbPBj8Tz5KVWR15ueV5aMVm2zXkFedQZP?##
?@@szoS56IVoFOd+qGIZ29B94aYrJQO7f9RO2El0eAWpKs7OvKzisHtbMiayAWTlxISPBol?##
?@@CHtR4EB3WQQ8aZNgxH9lPfvluc1fyKtYGoI2/dla7e6XpCAmQeelOV9cAgreD6Qmfjs+?##
?@@ZZtB+gpI5O8ZAcn4pxlaCbmPvYJxXiJzE4MMozesbYL7JZyYvZtLPMD5ciCb+ywDOa5m?##
?@@itkDwPfjTTj8rVadcOdtZITbMECQ3li3h0AeIl3OqcVLV8ybUokBMTv6ppJtQWweBd/5?##
?@@szoS58hmhLboBaWN8xb6xoxs2NTLPpg2C3K3lpwRLzIlAmjYYlsPLgSxpA6iAJSLUgzb?##
?@@5N+60T/5AC5tVA1GdVZqJnxTHXaiA24k9qo5aggDAvW+YFRwEmO8LWsH7M1rHNAaRd4Q?##
?@@ab2NW1eM1Ivopf4ZX2YoPsS15pOd2fPvNzPG33n7rzX/Y0qknLyjD9yB4RzQs5hfmfIm?##
?@@IltC2fNK1hZtCln2JAOv98P8VUN5JlLKUXr2pJpioszTy4Sbldj7QhN+e5H+dDXMoeTC?##
?@@cxNMz1K5uIv9k/bGiWcIMTfAkQjCrGesPbJpfbo5++F2PLaOy9frxpgrBDCSHEcYhUT0?##
?@@FOM3BJFOWCGM7VqV0txH0GdmgF+sNsk0z/lIdJRXEXj3vurHy5lKbtem55bmA8+s4OEp?##
?@@fWkLQycKuM0cL4lJxUOc61YNPqtWl7jwNMwrI6yh8TZtREwJ2gix86iIqLpqPll3Xzxc?##
?@@Dq/E8hc82N/mSDbcCv7GDb0zQjhcvsT71f6eykeVJUKl4Ak+d2uuR07UKO+Elia7HzcH?##
?@@T96dYsfXOPDveNnc/pIxB6D6mgRAKEukmBifdKrSLb9kPG4w0KoTDrBd5y2FJUUJPFOY?##
?@@UOawuo7lzGFx/pHCk9pDMSF516pGrtzs0nmqsOCW9a5W9/pNuQd3LttJoUARBs/jZkOK?##
?@@QWaSjevcTw18FLEDAPOms/U4E7zOMVVwikzLCGndj0xGVZG2MnhEYw1HXxpJP6xHuLuz?##
?@@psoaaorb0tn1dq8swt43/be6C92ImW/ZGL0yTwezgs8ASiZ8ed/QTDxyozUAB2iC8R2x?##
?@@X2fO6BELiK0uLcakO4zNlZPQLaIZ7YnTSKxnPcOrLEJATS2pC3sb57VqYamRWZ49PZQq?##
?@@NPaZEHjEmy8Tbn9OY3s3aP2Mbf6kw/+1Dlw+GIbBqMvScjQDpafWu+IkKBYiruPMfQwA?##
?@@eUe/4SNdOZww7I6+XhU9LfciKoEImLZH1l1IBp9cP2dSQemRI4mdrDX270040fxYASBF?##
?@@Co14kLVRJpXU6ysH+3jACC1sumkdIjYMQj/v8m9J5jvM3hiOOrWkQ+h0fxLRDwAM+hOL?##
?@@R5kEnxoJgBX5H3rofL1ioBonMCH0kaUsPn39T2LBgV3fYKIuiUeKu4zRgCC+qLrxZ7Gh?##
?@@8Eaf9WxMAtQA8SyK6TT2VugF7mT+vs6miX+eiJO99c2KxLzrclUz7STjzEjlYkKcGZD2?##
?@@QWaSjWis8DAVRVGI70bRA/fyK8rXOwIcBDJuq6sYiTECVkrCdK4lSKKnW7BaFJNc8rig?##
?@@oqjOCGDJhz5/F0frm4dpokNQWLtUWfDi1PAoQ04mjKOvtpf469IFd6YqA81cj5kuTWBK?##
?@@l0n8PLRr7A8DOTN1b0hulFcKkATj2TMgmsBzxWfYR3tU+A9myyr6HbSaWkHIXsM3O2iy?##
?@@ZJIuoikKwRDnP+CODku1yNaEMvBYwlp9oVKWkVSKIdQuajkHx9lrzTs0ssuorClbdJ1j?##
?@@0TxPQgC479VAakgTDgGk0wHLacee4pZ/O48iqFNa10DbdJE8RLB+aldXhj+6S+O4YuBv?##
?@@ziIWOUGiJn38dPjAjSEg5jndy8O9H1qmUkIbxZBwnzp2FFDzssHEJ3EsTCwHdzDkMCQV?##
?@@m2tInm7lsw6tGPd3hRdIxXEBOx0ofcyd0N7S17BCaTRiTeXEua39GlR+OIUJCET6rq8v?##
?@@NPaZEHio1Jp/idsVgCQbRRMwfIeE3LOqa8aqhDmcpW7BguK+02C6u2236iAtgOmNMNtK?##
?@@vZDRWpnv/zrXRd9HQ3bNvI9sdpSZY/APVtFA6JcRWuk2w0U4Z9z72f1tkZxO3Udspyyp?##
?@@Dq/E8vMzYwAXtwLC8VZhpCx/kqONphD14H038jtJODhZ4tZ3VEGrwofw0c53zN23zQXA?##
?@@82DY/ks/utozp2l5F8cuHvN69vmqijlbTBDCWpuqYfKvQUH/nY9vkqQ+M4+y1T0SR0nb?##
?@@jOoqcF6MSGkwP1mMPfiMsXnwDpk1LUDfBOzGXNECRBeXVwfwAvVkSESBuDK7ovyddGtm?##
?@@gYxYpEr8cfVl1o8NRwBdFbp2Acr2K79NyF4Vd1TY0iKYjq+7wzvUOsQfJLVrO1KzRfD9?##
?@@NgfAwR+chK9nfJli08wVeNtuUL5wd+zeLmCWN0deii+MhFbjurr/8qdKWrphiYNtmB+4?##
?@@Y4obSe6ruG4O47LYz/itg52cortJI4IoQxr0Jfn45Va3CcNAahJrx0PwRlOuypYRqi8J?##
?@@HCfPx+ap65xYQC9epEHfDRsf/h+exLYUjp5IxhIgg1gk4UFhnorAlmZco14ws8YFUaMx?##
?@@JXV74p1Yhu2AW1/c3/Pxw2Wb5Qj7wOyV7a0AFQ+eJQKHdiCVs+W6FDClD+fqth3X1Keo?##
?@@oqjOCKzyxhB5JT4SiwNKMxW9Grt6W0L9bOkKB/VqHJ5dUKEKZTRgAGEBQymT4Fe3G0Mk?##
?@@B3M+h//V2e12FWqqbhgqeOjokKz/SB9taEm37qx4FiPQlREJu0qgKtzVq9CDnrbaF38w?##
?@@IEocKGDZOdwGKSf74yoVJEAShf2xgZ36OiK3WNEwCmHDRyYAWf1yNR8ABhrDCTo95yhR?##
?@@1V6bo+vPCs6hQweFGT2H7HRenDLhuvaawb+yinxKMGzv254zquZZDfXRTN0aRoI4qDOG?##
?@@BmorL2tzz1Wh7oZEyw6F7veEhP42YxhDzmJVSE4OvZFD6yhsQmgA7QipSdYPgF/CI1CE?##
?@@F/xwDa5xNoU50bJhbJD16ybW5ZqPYMzHaS90yvx+8RzQVUPWo3zvy4B2wZQ9zcSngCKn?##
?@@wKoKZPgYtHLvxJaYxP8Cu3SHeV1eBKttY/amUE4QSosp0tLBP6r00hwskCz8aO2iv1QB?##
?@@3aM0ZsGZCoQ6SCmvtLx9m+CwWdk7HgLk/01Ee8yFyIwikJZUCy4SO4dXJHL7wqHQI6On?##
?@@BmorL4giEsYbAL9AXQtfGgphWBCqV1TFZuF0D6nPzIxrY+e3vIyOYO22mQvJ5hMJQhlo?##
?@@i+IWGJPiRdheu+F+iBiMPJOj4N9XpOAOuLCOKj/hTYvFw9VFpF6f+fsIQOEuGxa3g5Yi?##
?@@tEIlP1DD4qUj2peTMW+yoxb5Si/7bBQHukkPZ9FiSJzMW8rl49AhOLPdNlyEkjXkIPBv?##
?@@eUe/4ZmD+5EmhxSYZv/GeAEnqba+3wZj1pfpRwF3x8GgrFJ4YPftXp0qbr12kjNMmYkw?##
?@@+pxeaQKLvKoTYly8i9PPA8gB0n+PRQ8cXVAE2xR0k8dSKwUBgFDhpty/XoT1DfccGu+e?##
?@@F/xwDVwwGSfGx1vgAdxhujqM9kzTQx2oHvJRZKYkKJccluZ5pSXSY9tPsbo+3s3QhstD?##
?@@mFIPlRAtAYid8Fm5wVDh5nebreYvQJx2UJnfaYJqhtjNy5utAicA83imPFYiRmm0lWwI?##
?@@Nf6taMt4PFs8KMTs5peqWeIkaCRKnZVXGKfR7Qp3NXUaAzVItkJutCpd4H4d9vM0izej?##
?@@ZqRUUprAGAo/Ddp1xKYC/9Ob8LzvBZmUxsOI1EIK3JR2tk15T6X6+oSPp3kbV70c1q5P?##
?@@J4ahk0YypoKK+mrq+//enGJXbu66HdeGv30rALPdYJInF3oW9fEKJHeUoNc30jM8AY2E?##
?@@ADe5HUpesatpuoTGbT9m+Eni7BPr+w0GNUyN07gPzVNkhkFjK8DsuHKcBmI57PfRnhQ/?##
?@@yfe2fyvFajBAiNgYQIjP5Kw1vc9yFWdNpSbqcNmu/24PxY4rzOEXrshhfheftOw+FETe?##
?@@6hMs43hKF7gCOUx0s+O8Zvmk/IBl7Vg7c+VdeyaoeHszuZmH/sKgYGEN1dgEXONl1g29?##
?@@5/nz2jELSaiawGkAcuV5aGHocZEUYNuD1iKV/Vz7JtIz7LfkThuDMQPB84g/mqoTzjcU?##
?@@aLV6A73urkFwur+bY4MBSoygZxiDm2dLUYQPRUgJIEtDNtwQq5tXIjoaV/1UJ2gVqR8D?##
?@@beDavWiq7Ht2fnYQh86gVVbeH9C8FflR/9C9WG6KnNaTbpDA426GsBDVI/UwTCCByiuv?##
?@@rg+zLZcI8uOqB+vXnRg95P7QaMXkRkLPNG8573LljpxKtbVHoW3neIgfM8yvPkg77/KR?##
?@@B3M+h294t0HlcS9WExENhGM5xkYF21jjmOePyX5hzuWUzOMVVvNB9En/HWC1sMXubd1N?##
?@@EMDqon0HG9TGCnqqGz0mn1F2VnVAuzgSzkRZzvE+9qNhyAjagYlZF1NEmtdfuGrXLw8P?##